<?xml version="1.0" ?>
<nodes>
    
    
    <node id="1" x="-85.16447464598933" y="35.049527055950406"/>
    
    
    <node id="2" x="-85.1662850796407" y="35.04620260000186" type="traffic_light"/>
    
    
    <node id="3" x="-85.16805575473296" y="35.046817884997914"/>
    
    
    <node id="4" x="-85.15815033817577" y="35.043334590756956" type="traffic_light"/>
    
    
    <node id="6" x="-85.15749890527556" y="35.04436761025218"/>
    
    
    <node id="7" x="-85.15859463964277" y="35.04267246719171"/>
    
    
    <node id="8" x="-85.15693769310609" y="35.04285653757236" type="traffic_light"/>
    
    
    <node id="9" x="-85.1558920441088" y="35.04412582007064"/>
    
    
    <node id="10" x="-85.15769935984692" y="35.041878469248964"/>
    
    
    <node id="11" x="-85.15496675755963" y="35.042076240960824" type="traffic_light"/>
    
    
    <node id="12" x="-85.15415828267834" y="35.043155944265244"/>
    
    
    <node id="13" x="-85.15642995606761" y="35.04108171247013"/>
    
    
    <node id="14" x="-85.16778141178172" y="35.043419377816896"/>
    
    
    <node id="15" x="-85.14605120668297" y="35.038825507108825"/>
    
    
    <node id="16" x="-85.15000950118645" y="35.04029569563617" type="traffic_light"/>
    
    
    <node id="17" x="-85.14882338984923" y="35.04230395824785"/>
    
    
    <node id="18" x="-85.1507278219002" y="35.03908139143229"/>
    
    
    <node id="19" x="-85.15155945285356" y="35.04088922778246" type="traffic_light"/>
    
    
    <node id="20" x="-85.15106162744868" y="35.04187276821733"/>
    
    
    <node id="21" x="-85.15201049213266" y="35.04000184174026"/>
    
    
    <node id="22" x="-85.15405813481385" y="35.04173004159407" type="traffic_light"/>
    
    
    <node id="23" x="-85.15349686616585" y="35.04265039958749"/>
    
    
    <node id="24" x="-85.15487996444959" y="35.04051571654109"/>
    
    
    <node id="25" x="-85.16582039147124" y="35.04274640530259"/>
    
    
    <node id="33" x="-85.16236296269967" y="35.04485657545937" type="traffic_light"/>
    
    
    <node id="58" x="-85.15802004634784" y="35.047672729248646"/>
    

    <node id="14turn2" x="-85.1664401992989" y="35.0459140824991"/>
    <node id="1turn2" x="-85.16618282825698" y="35.04639036969558"/>
    <node id="3turn2" x="-85.16674738862798" y="35.0463632493281"/>
    <node id="33turn2" x="-85.16594541157804" y="35.04608603665235"/>
    <node id="7turn4" x="-85.15833573100434" y="35.04305830921728"/>
    <node id="33turn4" x="-85.1584566442076" y="35.043445263290124"/>
    <node id="8turn4" x="-85.15784867885645" y="35.043215671214185"/>
    <node id="11turn8" x="-85.15624443615127" y="35.04258208134134"/>
    <node id="8turn11" x="-85.15562986459952" y="35.04233877134571"/>
    <node id="18turn16" x="-85.15044731071129" y="35.039555593772214"/>
    <node id="17turn16" x="-85.14944108513896" y="35.04125812216491"/>
    <node id="19turn16" x="-85.15076766245579" y="35.04058602634897"/>
    <node id="15turn16" x="-85.14965887448204" y="35.0401654732982"/>
    <node id="21turn19" x="-85.15164949604252" y="35.040712076217055"/>
    <node id="20turn19" x="-85.15136719320105" y="35.04126907312106"/>
    <node id="22turn19" x="-85.15186911499563" y="35.040993433722186"/>
    <node id="16turn19" x="-85.1512561854484" y="35.04077309803337"/>
    <node id="19turn22" x="-85.15374846708801" y="35.04162584121596"/>
    <node id="2turn33" x="-85.16336650002137" y="35.045200993939375"/>
    <node id="4turn33" x="-85.16159717271728" y="35.04457991722696"/>
    <node id="25turn33" x="-85.16289983417471" y="35.044528920638115"/>
    <node id="58turn33" x="-85.16069634962196" y="35.04593732800867"/>
</nodes>
