<?xml version="1.0" ?>
<routes>
    <vType id="car" type="passenger"/>
    <flow id="14_3" from="14_14turn2" to="2_3" number="118" type="car" begin="32400" end="39600"/>
    <flow id="14_1" from="14_14turn2" to="2_1" number="140" type="car" begin="32400" end="39600"/>
    <flow id="1_33" from="1_1turn2" to="2turn33_33" number="73" type="car" begin="32400" end="39600"/>
    <flow id="1_14" from="1_1turn2" to="2_14" number="188" type="car" begin="32400" end="39600"/>
    <flow id="3_1" from="3_3turn2" to="2_1" number="163" type="car" begin="32400" end="39600"/>
    <flow id="3_33" from="3_3turn2" to="2turn33_33" number="426" type="car" begin="32400" end="39600"/>
    <flow id="33_14" from="33_33turn2" to="2_14" number="41" type="car" begin="32400" end="39600"/>
    <flow id="33_3" from="33_33turn2" to="2_3" number="812" type="car" begin="32400" end="39600"/>
    <flow id="7_6" from="7_7turn4" to="4_6" number="4" type="car" begin="32400" end="39600"/>
    <flow id="7_8" from="7_7turn4" to="4_8" number="12" type="car" begin="32400" end="39600"/>
    <flow id="6_8" from="6_4" to="4_8" number="99" type="car" begin="32400" end="39600"/>
    <flow id="6_7" from="6_4" to="4_7" number="9" type="car" begin="32400" end="39600"/>
    <flow id="33_6" from="33_33turn4" to="4_6" number="35" type="car" begin="32400" end="39600"/>
    <flow id="33_8" from="33_33turn4" to="4_8" number="453" type="car" begin="32400" end="39600"/>
    <flow id="8_7" from="8_8turn4" to="4_7" number="18" type="car" begin="32400" end="39600"/>
    <flow id="8_33" from="8_8turn4" to="4turn33_33" number="1054" type="car" begin="32400" end="39600"/>
    <flow id="9_11" from="9_8" to="8turn11_11" number="536" type="car" begin="32400" end="39600"/>
    <flow id="9_10" from="9_8" to="8_10" number="94" type="car" begin="32400" end="39600"/>
    <flow id="9_4" from="9_8" to="8turn4_4" number="435" type="car" begin="32400" end="39600"/>
    <flow id="4_11" from="4_8" to="8turn11_11" number="477" type="car" begin="32400" end="39600"/>
    <flow id="11_10" from="11_11turn8" to="8_10" number="470" type="car" begin="32400" end="39600"/>
    <flow id="11_4" from="11_11turn8" to="8turn4_4" number="745" type="car" begin="32400" end="39600"/>
    <flow id="8_12" from="8_8turn11" to="11_12" number="109" type="car" begin="32400" end="39600"/>
    <flow id="8_22" from="8_8turn11" to="11_22" number="846" type="car" begin="32400" end="39600"/>
    <flow id="22_8" from="22_11" to="11turn8_8" number="1033" type="car" begin="32400" end="39600"/>
    <flow id="22_12" from="22_11" to="11_12" number="142" type="car" begin="32400" end="39600"/>
    <flow id="13_8" from="13_11" to="11turn8_8" number="207" type="car" begin="32400" end="39600"/>
    <flow id="13_22" from="13_11" to="11_22" number="495" type="car" begin="32400" end="39600"/>
    <flow id="18_19" from="18_18turn16" to="16turn19_19" number="250" type="car" begin="32400" end="39600"/>
    <flow id="18_17" from="18_18turn16" to="16_17" number="112" type="car" begin="32400" end="39600"/>
    <flow id="17_15" from="17_17turn16" to="16_15" number="64" type="car" begin="32400" end="39600"/>
    <flow id="17_18" from="17_17turn16" to="16_18" number="192" type="car" begin="32400" end="39600"/>
    <flow id="19_17" from="19_19turn16" to="16_17" number="126" type="car" begin="32400" end="39600"/>
    <flow id="19_15" from="19_19turn16" to="16_15" number="482" type="car" begin="32400" end="39600"/>
    <flow id="19_18" from="19_19turn16" to="16_18" number="387" type="car" begin="32400" end="39600"/>
    <flow id="15_18" from="15_15turn16" to="16_18" number="62" type="car" begin="32400" end="39600"/>
    <flow id="15_19" from="15_15turn16" to="16turn19_19" number="661" type="car" begin="32400" end="39600"/>
    <flow id="21_20" from="21_21turn19" to="19_20" number="1" type="car" begin="32400" end="39600"/>
    <flow id="21_16" from="21_21turn19" to="19turn16_16" number="5" type="car" begin="32400" end="39600"/>
    <flow id="20_16" from="20_20turn19" to="19turn16_16" number="34" type="car" begin="32400" end="39600"/>
    <flow id="20_21" from="20_20turn19" to="19_21" number="14" type="car" begin="32400" end="39600"/>
    <flow id="22_20" from="22_22turn19" to="19_20" number="152" type="car" begin="32400" end="39600"/>
    <flow id="22_16" from="22_22turn19" to="19turn16_16" number="1009" type="car" begin="32400" end="39600"/>
    <flow id="16_21" from="16_16turn19" to="19_21" number="8" type="car" begin="32400" end="39600"/>
    <flow id="16_22" from="16_16turn19" to="19turn22_22" number="1010" type="car" begin="32400" end="39600"/>
    <flow id="24_11" from="24_22" to="22_11" number="99" type="car" begin="32400" end="39600"/>
    <flow id="24_23" from="24_22" to="22_23" number="14" type="car" begin="32400" end="39600"/>
    <flow id="24_19" from="24_22" to="22turn19_19" number="18" type="car" begin="32400" end="39600"/>
    <flow id="23_24" from="23_22" to="22_24" number="4" type="car" begin="32400" end="39600"/>
    <flow id="11_23" from="11_22" to="22_23" number="22" type="car" begin="32400" end="39600"/>
    <flow id="11_19" from="11_22" to="22turn19_19" number="1201" type="car" begin="32400" end="39600"/>
    <flow id="11_24" from="11_22" to="22_24" number="118" type="car" begin="32400" end="39600"/>
    <flow id="19_24" from="19_19turn22" to="22_24" number="34" type="car" begin="32400" end="39600"/>
    <flow id="19_11" from="19_19turn22" to="22_11" number="974" type="car" begin="32400" end="39600"/>
    <flow id="2_58" from="2_2turn33" to="33_58" number="78" type="car" begin="32400" end="39600"/>
    <flow id="2_4" from="2_2turn33" to="33turn4_4" number="318" type="car" begin="32400" end="39600"/>
    <flow id="2_25" from="2_2turn33" to="33_25" number="13" type="car" begin="32400" end="39600"/>
    <flow id="4_25" from="4_4turn33" to="33_25" number="200" type="car" begin="32400" end="39600"/>
    <flow id="4_2" from="4_4turn33" to="33turn2_2" number="650" type="car" begin="32400" end="39600"/>
    <flow id="4_58" from="4_4turn33" to="33_58" number="100" type="car" begin="32400" end="39600"/>
    <flow id="25_2" from="25_25turn33" to="33turn2_2" number="28" type="car" begin="32400" end="39600"/>
    <flow id="25_58" from="25_25turn33" to="33_58" number="163" type="car" begin="32400" end="39600"/>
    <flow id="25_4" from="25_25turn33" to="33turn4_4" number="80" type="car" begin="32400" end="39600"/>
    <flow id="58_4" from="58_58turn33" to="33turn4_4" number="78" type="car" begin="32400" end="39600"/>
    <flow id="58_25" from="58_58turn33" to="33_25" number="372" type="car" begin="32400" end="39600"/>
    <flow id="58_2" from="58_58turn33" to="33turn2_2" number="173" type="car" begin="32400" end="39600"/>
</routes>
