<?xml version='1.0' encoding='utf-8'?>
<net xmlns:xsi="http://www.w3.org/2001/XMLSchema-instance" version="1.20" junctionCornerDetail="5" limitTurnSpeed="5.50" xsi:noNamespaceSchemaLocation="http://sumo.dlr.de/xsd/net_file.xsd">

    <location netOffset="-667082.45,-3878919.78" convBoundary="0.00,0.00,2023.64,1155.90" origBoundary="-85.168056,35.038826,-85.146051,35.049527" projParameter="+proj=utm +zone=16 +ellps=WGS84 +datum=WGS84 +units=m +no_defs" />

    <edge id=":1_0" function="internal">
        <lane id=":1_0_0" index="0" speed="3.65" length="4.67" shape="322.60,1155.27 322.33,1156.69 321.75,1157.37 320.86,1157.32 319.65,1156.53" />
    </edge>
    <edge id=":11_0" function="internal">
        <lane id=":11_0_0" index="0" speed="6.27" length="9.04" shape="1219.12,350.90 1216.98,352.24 1215.87,353.91 1215.80,355.91 1216.76,358.24" />
    </edge>
    <edge id=":11_1" function="internal">
        <lane id=":11_1_0" index="0" speed="17.88" length="20.55" shape="1217.83,347.97 1212.04,349.98 1207.80,350.66 1203.61,351.34 1198.00,353.36" />
        <lane id=":11_1_1" index="1" speed="17.88" length="20.55" shape="1216.53,345.05 1210.73,347.06 1206.48,347.74 1202.28,348.43 1196.67,350.45" />
        <lane id=":11_1_2" index="2" speed="17.88" length="20.55" shape="1215.24,342.12 1196.67,350.45" />
    </edge>
    <edge id=":11_4" function="internal">
        <lane id=":11_4_0" index="0" speed="8.36" length="10.27" shape="1199.10,326.82 1201.13,328.08 1203.42,328.61 1205.97,328.41 1208.79,327.48" />
        <lane id=":11_4_1" index="1" speed="9.64" length="13.88" shape="1197.01,329.24 1199.83,331.03 1202.94,331.82 1206.36,331.61 1210.08,330.41" />
        <lane id=":11_4_2" index="2" speed="10.77" length="17.49" shape="1194.93,331.67 1198.53,333.98 1202.47,335.03 1206.75,334.82 1211.37,333.33" />
    </edge>
    <edge id=":11_7" function="internal">
        <lane id=":11_7_0" index="0" speed="13.41" length="33.54" shape="1192.84,334.10 1200.77,341.50 1206.26,347.83 1210.33,353.73 1214.00,359.87" />
    </edge>
    <edge id=":11_8" function="internal">
        <lane id=":11_8_0" index="0" speed="8.40" length="20.91" shape="1192.84,334.10 1198.24,339.55 1200.67,344.08 1200.15,347.72 1196.67,350.45" />
    </edge>
    <edge id=":11_9" function="internal">
        <lane id=":11_9_0" index="0" speed="17.88" length="21.80" shape="1192.66,341.72 1197.92,338.21 1200.70,334.55 1203.49,330.90 1208.79,327.48" />
        <lane id=":11_9_1" index="1" speed="17.88" length="21.80" shape="1194.00,344.63 1199.24,341.13 1202.01,337.46 1204.79,333.83 1210.08,330.41" />
    </edge>
    <edge id=":11_11" function="internal">
        <lane id=":11_11_0" index="0" speed="10.76" length="2.91" shape="1195.33,347.54 1198.20,347.05" />
    </edge>
    <edge id=":11_12" function="internal">
        <lane id=":11_12_0" index="0" speed="10.76" length="21.50" shape="1198.20,347.05 1199.86,346.77 1204.48,348.56 1209.20,352.93 1214.00,359.87" />
    </edge>
    <edge id=":11turn8_0" function="internal">
        <lane id=":11turn8_0_0" index="0" speed="17.88" length="9.63" shape="1091.70,402.13 1089.67,404.16 1089.40,406.70 1089.13,409.25 1087.10,411.28" />
        <lane id=":11turn8_0_1" index="1" speed="17.88" length="9.63" shape="1090.37,399.22 1088.34,401.25 1088.06,403.80 1087.79,406.34 1085.76,408.37" />
        <lane id=":11turn8_0_2" index="2" speed="17.88" length="9.63" shape="1090.37,399.22 1088.34,400.70 1087.40,402.34 1086.46,403.98 1084.43,405.46" />
        <lane id=":11turn8_0_3" index="3" speed="17.88" length="9.63" shape="1090.37,399.22 1083.09,402.56" />
    </edge>
    <edge id=":14_0" function="internal">
        <lane id=":14_0_0" index="0" speed="3.65" length="4.67" shape="30.47,473.53 30.75,472.12 31.33,471.44 32.22,471.50 33.42,472.29" />
    </edge>
    <edge id=":14turn2_0" function="internal">
        <lane id=":14turn2_0_0" index="0" speed="15.65" length="0.10" shape="153.63,750.00 153.63,750.00" />
        <lane id=":14turn2_0_1" index="1" speed="15.65" length="0.10" shape="150.68,751.24 150.68,751.24" />
    </edge>
    <edge id=":15_0" function="internal">
        <lane id=":15_0_0" index="0" speed="3.65" length="4.67" shape="2023.01,-1.47 2024.43,-1.21 2025.11,-0.63 2025.06,0.26 2024.27,1.47" />
    </edge>
    <edge id=":15turn16_0" function="internal">
        <lane id=":15turn16_0_0" index="0" speed="17.88" length="8.54" shape="1697.34,145.35 1695.28,146.78 1694.30,148.40 1693.32,150.01 1691.26,151.44" />
        <lane id=":15turn16_0_1" index="1" speed="17.88" length="8.54" shape="1696.08,142.41 1694.02,143.84 1693.04,145.45 1692.06,147.07 1689.99,148.50" />
        <lane id=":15turn16_0_2" index="2" speed="17.88" length="8.54" shape="1696.08,142.41 1688.73,145.56" />
    </edge>
    <edge id=":16_0" function="internal">
        <lane id=":16_0_0" index="0" speed="7.43" length="11.95" shape="1658.01,172.15 1656.04,168.71 1653.90,166.58 1651.59,165.75 1649.13,166.22" />
    </edge>
    <edge id=":16_1" function="internal">
        <lane id=":16_1_0" index="0" speed="17.88" length="30.80" shape="1658.01,172.15 1654.39,163.14 1652.25,155.90 1650.50,149.50 1648.05,143.04" />
        <lane id=":16_1_1" index="1" speed="17.88" length="30.80" shape="1660.92,170.81 1657.29,161.79 1655.15,154.55 1653.40,148.16 1650.95,141.70" />
    </edge>
    <edge id=":16_3" function="internal">
        <lane id=":16_3_0" index="0" speed="10.22" length="11.70" shape="1663.82,169.46 1661.87,163.00 1662.39,158.08" />
    </edge>
    <edge id=":16_16" function="internal">
        <lane id=":16_16_0" index="0" speed="10.22" length="12.63" shape="1662.39,158.08 1662.45,157.54 1665.57,153.07 1671.22,149.60" />
    </edge>
    <edge id=":16_4" function="internal">
        <lane id=":16_4_0" index="0" speed="7.91" length="14.14" shape="1675.01,158.42 1670.50,160.74 1667.61,163.13 1666.35,165.59 1666.73,168.12" />
    </edge>
    <edge id=":16_5" function="internal">
        <lane id=":16_5_0" index="0" speed="17.88" length="27.10" shape="1675.01,158.42 1667.01,161.32 1660.84,162.80 1655.28,164.04 1649.13,166.22" />
        <lane id=":16_5_1" index="1" speed="17.88" length="27.10" shape="1673.75,155.48 1665.74,158.38 1659.55,159.87 1653.99,161.12 1647.83,163.30" />
    </edge>
    <edge id=":16_7" function="internal">
        <lane id=":16_7_0" index="0" speed="11.02" length="6.69" shape="1672.48,152.54 1665.98,154.08" />
    </edge>
    <edge id=":16_17" function="internal">
        <lane id=":16_17_0" index="0" speed="11.02" length="20.55" shape="1665.98,154.08 1660.22,152.78 1655.21,148.66 1650.95,141.70" />
    </edge>
    <edge id=":16_8" function="internal">
        <lane id=":16_8_0" index="0" speed="8.28" length="14.94" shape="1659.66,137.66 1662.25,142.42 1664.83,145.50 1667.40,146.92 1669.96,146.66" />
    </edge>
    <edge id=":16_9" function="internal">
        <lane id=":16_9_0" index="0" speed="17.88" length="31.38" shape="1659.66,137.66 1663.13,147.52 1664.77,156.29 1665.62,163.36 1666.73,168.12" />
    </edge>
    <edge id=":16_10" function="internal">
        <lane id=":16_10_0" index="0" speed="11.76" length="18.54" shape="1656.76,139.00 1659.72,148.12 1659.44,155.69 1658.74,156.89" />
        <lane id=":16_10_1" index="1" speed="10.80" length="9.42" shape="1653.86,140.35 1656.41,148.09 1656.37,149.36" />
    </edge>
    <edge id=":16_18" function="internal">
        <lane id=":16_18_0" index="0" speed="11.76" length="13.74" shape="1658.74,156.89 1655.91,161.73 1649.13,166.22" />
    </edge>
    <edge id=":16_19" function="internal">
        <lane id=":16_19_0" index="0" speed="10.80" length="17.65" shape="1656.37,149.36 1656.25,154.50 1653.39,159.56 1647.83,163.30" />
    </edge>
    <edge id=":16_12" function="internal">
        <lane id=":16_12_0" index="0" speed="7.20" length="11.44" shape="1642.64,151.59 1645.90,149.77 1647.88,147.73 1648.60,145.49 1648.05,143.04" />
    </edge>
    <edge id=":16_13" function="internal">
        <lane id=":16_13_0" index="0" speed="17.88" length="27.21" shape="1643.94,154.52 1651.95,151.52 1658.16,150.00 1663.76,148.78 1669.96,146.66" />
        <lane id=":16_13_1" index="1" speed="17.88" length="27.21" shape="1645.24,157.45 1653.24,154.45 1659.44,152.94 1665.03,151.72 1671.22,149.60" />
    </edge>
    <edge id=":16_15" function="internal">
        <lane id=":16_15_0" index="0" speed="10.44" length="7.10" shape="1646.53,160.37 1652.96,158.57 1653.39,158.62" />
    </edge>
    <edge id=":16_20" function="internal">
        <lane id=":16_20_0" index="0" speed="10.44" length="17.47" shape="1653.39,158.62 1658.47,159.25 1663.06,162.44 1666.73,168.12" />
    </edge>
    <edge id=":16turn19_0" function="internal">
        <lane id=":16turn19_0_0" index="0" speed="17.88" length="8.54" shape="1550.41,209.98 1548.37,211.43 1547.41,213.06 1546.45,214.69 1544.40,216.14" />
        <lane id=":16turn19_0_1" index="1" speed="17.88" length="8.54" shape="1549.12,207.05 1547.07,208.51 1546.11,210.13 1545.15,211.76 1543.10,213.22" />
        <lane id=":16turn19_0_2" index="2" speed="17.88" length="8.54" shape="1549.12,207.05 1541.80,210.29" />
    </edge>
    <edge id=":17_0" function="internal">
        <lane id=":17_0_0" index="0" speed="3.65" length="4.67" shape="1765.04,380.45 1764.82,381.88 1764.26,382.57 1763.37,382.55 1762.14,381.79" />
    </edge>
    <edge id=":17turn16_0" function="internal">
        <lane id=":17turn16_0_0" index="0" speed="17.88" length="8.54" shape="1706.72,269.72 1705.23,267.70 1703.59,266.77 1701.94,265.83 1700.45,263.81" />
        <lane id=":17turn16_0_1" index="1" speed="17.88" length="8.54" shape="1709.62,268.38 1708.13,266.35 1706.49,265.42 1704.84,264.49 1703.36,262.46" />
        <lane id=":17turn16_0_2" index="2" speed="17.88" length="8.54" shape="1709.62,268.38 1706.26,261.12" />
    </edge>
    <edge id=":18_0" function="internal">
        <lane id=":18_0_0" index="0" speed="3.65" length="4.67" shape="1595.04,21.14 1595.26,19.71 1595.82,19.01 1596.71,19.04 1597.94,19.79" />
    </edge>
    <edge id=":18turn16_0" function="internal">
        <lane id=":18turn16_0_0" index="0" speed="17.88" length="8.54" shape="1623.78,67.89 1625.26,69.91 1626.91,70.84 1628.56,71.77 1630.04,73.80" />
        <lane id=":18turn16_0_1" index="1" speed="17.88" length="8.54" shape="1620.87,69.23 1622.36,71.26 1624.01,72.19 1625.65,73.12 1627.14,75.14" />
        <lane id=":18turn16_0_2" index="2" speed="17.88" length="8.54" shape="1620.87,69.23 1624.24,76.49" />
    </edge>
    <edge id=":19_0" function="internal">
        <lane id=":19_0_0" index="0" speed="7.32" length="11.65" shape="1517.39,233.87 1515.67,230.46 1513.69,228.31 1511.46,227.42 1508.98,227.80" />
    </edge>
    <edge id=":19_1" function="internal">
        <lane id=":19_1_0" index="0" speed="8.94" length="27.30" shape="1517.39,233.87 1515.01,226.48 1513.21,218.94 1511.75,212.27 1510.40,207.50" />
    </edge>
    <edge id=":19_2" function="internal">
        <lane id=":19_2_0" index="0" speed="10.04" length="6.12" shape="1520.37,232.70 1518.79,226.79" />
    </edge>
    <edge id=":19_14" function="internal">
        <lane id=":19_14_0" index="0" speed="10.04" length="16.11" shape="1518.79,226.79 1518.65,226.28 1519.02,220.99 1521.47,216.83 1526.01,213.79" />
    </edge>
    <edge id=":19_3" function="internal">
        <lane id=":19_3_0" index="0" speed="7.61" length="12.32" shape="1529.90,222.57 1526.27,224.56 1523.97,226.71 1522.99,229.03 1523.35,231.52" />
    </edge>
    <edge id=":19_4" function="internal">
        <lane id=":19_4_0" index="0" speed="17.88" length="21.56" shape="1529.90,222.57 1523.78,224.72 1519.24,225.47 1514.80,226.07 1508.98,227.80" />
        <lane id=":19_4_1" index="1" speed="17.88" length="21.56" shape="1528.60,219.65 1522.54,221.77 1518.04,222.50 1513.63,223.09 1507.83,224.81" />
    </edge>
    <edge id=":19_6" function="internal">
        <lane id=":19_6_0" index="0" speed="9.72" length="5.61" shape="1527.30,216.72 1522.02,218.02 1521.85,217.98" />
    </edge>
    <edge id=":19_15" function="internal">
        <lane id=":19_15_0" index="0" speed="9.72" length="16.46" shape="1521.85,217.98 1517.44,216.91 1513.57,213.41 1510.40,207.50" />
    </edge>
    <edge id=":19_7" function="internal">
        <lane id=":19_7_0" index="0" speed="7.16" length="11.50" shape="1516.35,205.14 1518.07,208.51 1520.03,210.59 1522.24,211.37 1524.71,210.87" />
    </edge>
    <edge id=":19_8" function="internal">
        <lane id=":19_8_0" index="0" speed="8.94" length="27.10" shape="1513.38,206.32 1523.35,231.52" />
    </edge>
    <edge id=":19_9" function="internal">
        <lane id=":19_9_0" index="0" speed="9.80" length="9.04" shape="1513.38,206.32 1515.13,212.79 1514.98,215.12" />
    </edge>
    <edge id=":19_16" function="internal">
        <lane id=":19_16_0" index="0" speed="9.80" length="12.92" shape="1514.98,215.12 1514.80,218.03 1512.36,222.04 1507.83,224.81" />
    </edge>
    <edge id=":19_10" function="internal">
        <lane id=":19_10_0" index="0" speed="7.28" length="11.62" shape="1504.36,215.86 1507.78,214.16 1509.92,212.20 1510.80,209.98 1510.40,207.50" />
    </edge>
    <edge id=":19_11" function="internal">
        <lane id=":19_11_0" index="0" speed="17.88" length="21.11" shape="1504.36,215.86 1510.37,214.05 1514.77,213.47 1519.05,212.83 1524.71,210.87" />
        <lane id=":19_11_1" index="1" speed="17.88" length="21.11" shape="1505.51,218.85 1511.58,217.02 1516.02,216.41 1520.33,215.76 1526.01,213.79" />
    </edge>
    <edge id=":19_13" function="internal">
        <lane id=":19_13_0" index="0" speed="9.84" length="5.48" shape="1506.67,221.83 1511.89,220.82 1512.05,220.86" />
    </edge>
    <edge id=":19_17" function="internal">
        <lane id=":19_17_0" index="0" speed="9.84" length="16.40" shape="1512.05,220.86 1516.41,222.09 1520.23,225.66 1523.35,231.52" />
    </edge>
    <edge id=":19turn16_0" function="internal">
        <lane id=":19turn16_0_0" index="0" speed="17.88" length="9.12" shape="1584.16,184.52 1586.21,182.51 1586.52,179.97 1586.83,177.43 1588.88,175.43" />
        <lane id=":19turn16_0_1" index="1" speed="17.88" length="9.12" shape="1584.16,184.52 1586.21,183.06 1587.17,181.43 1588.13,179.81 1590.18,178.35" />
        <lane id=":19turn16_0_2" index="2" speed="17.88" length="9.12" shape="1585.46,187.44 1587.50,185.99 1588.47,184.36 1589.43,182.73 1591.47,181.28" />
        <lane id=":19turn16_0_3" index="3" speed="17.88" length="9.12" shape="1585.46,187.44 1592.77,184.20" />
    </edge>
    <edge id=":19turn22_0" function="internal">
        <lane id=":19turn22_0_0" index="0" speed="17.88" length="8.54" shape="1321.17,300.61 1319.06,301.97 1318.02,303.55 1316.99,305.13 1314.87,306.49" />
        <lane id=":19turn22_0_1" index="1" speed="17.88" length="8.54" shape="1320.02,297.63 1317.90,298.98 1316.87,300.57 1315.83,302.15 1313.72,303.50" />
        <lane id=":19turn22_0_2" index="2" speed="17.88" length="8.54" shape="1320.02,297.63 1312.56,300.52" />
    </edge>
    <edge id=":1turn2_0" function="internal">
        <lane id=":1turn2_0_0" index="0" speed="20.12" length="0.10" shape="167.30,807.00 167.30,807.00" />
        <lane id=":1turn2_0_1" index="1" speed="20.12" length="0.10" shape="170.24,805.75 170.24,805.75" />
    </edge>
    <edge id=":2_0" function="internal">
        <lane id=":2_0_0" index="0" speed="7.44" length="11.93" shape="163.71,798.60 161.85,795.11 159.78,792.91 157.51,792.01 155.03,792.40" />
    </edge>
    <edge id=":2_1" function="internal">
        <lane id=":2_1_0" index="0" speed="17.88" length="27.56" shape="163.71,798.60 161.13,791.23 159.12,783.66 157.47,776.94 156.00,772.16" />
    </edge>
    <edge id=":2_2" function="internal">
        <lane id=":2_2_0" index="0" speed="9.72" length="9.08" shape="166.66,797.34 164.72,790.90 164.81,788.55" />
    </edge>
    <edge id=":2_14" function="internal">
        <lane id=":2_14_0" index="0" speed="9.72" length="12.79" shape="164.81,788.55 164.92,785.67 167.26,781.66 171.73,778.86" />
    </edge>
    <edge id=":2_3" function="internal">
        <lane id=":2_3_0" index="0" speed="7.16" length="11.38" shape="175.26,787.79 171.96,789.47 169.91,791.42 169.13,793.62 169.60,796.09" />
    </edge>
    <edge id=":2_4" function="internal">
        <lane id=":2_4_0" index="0" speed="17.88" length="20.84" shape="175.26,787.79 169.33,789.59 165.01,790.13 160.75,790.65 155.03,792.40" />
        <lane id=":2_4_1" index="1" speed="17.88" length="20.84" shape="174.08,784.81 168.15,786.62 163.82,787.16 159.56,787.68 153.84,789.43" />
    </edge>
    <edge id=":2_6" function="internal">
        <lane id=":2_6_0" index="0" speed="9.92" length="5.44" shape="172.90,781.83 167.72,782.86 167.57,782.82" />
    </edge>
    <edge id=":2_15" function="internal">
        <lane id=":2_15_0" index="0" speed="9.92" length="16.57" shape="167.57,782.82 163.18,781.59 159.27,778.02 156.00,772.16" />
    </edge>
    <edge id=":2_7" function="internal">
        <lane id=":2_7_0" index="0" speed="7.43" length="11.90" shape="161.90,769.68 163.74,773.16 165.80,775.36 168.07,776.26 170.55,775.88" />
    </edge>
    <edge id=":2_8" function="internal">
        <lane id=":2_8_0" index="0" speed="17.88" length="27.53" shape="161.90,769.68 164.46,777.05 166.47,784.62 168.12,791.32 169.60,796.09" />
    </edge>
    <edge id=":2_9" function="internal">
        <lane id=":2_9_0" index="0" speed="9.76" length="9.00" shape="158.95,770.92 160.85,777.36 160.76,779.64" />
    </edge>
    <edge id=":2_16" function="internal">
        <lane id=":2_16_0" index="0" speed="9.76" length="12.88" shape="160.76,779.64 160.63,782.59 158.29,786.61 153.84,789.43" />
    </edge>
    <edge id=":2_10" function="internal">
        <lane id=":2_10_0" index="0" speed="7.21" length="11.46" shape="150.26,780.52 153.59,778.81 155.66,776.84 156.46,774.63 156.00,772.16" />
    </edge>
    <edge id=":2_11" function="internal">
        <lane id=":2_11_0" index="0" speed="17.88" length="20.88" shape="150.26,780.52 156.20,778.68 160.54,778.13 164.81,777.62 170.55,775.88" />
        <lane id=":2_11_1" index="1" speed="17.88" length="20.88" shape="151.45,783.49 157.38,781.65 161.72,781.10 165.99,780.59 171.73,778.86" />
    </edge>
    <edge id=":2_13" function="internal">
        <lane id=":2_13_0" index="0" speed="9.93" length="5.44" shape="152.64,786.46 157.82,785.41 157.97,785.45" />
    </edge>
    <edge id=":2_17" function="internal">
        <lane id=":2_17_0" index="0" speed="9.93" length="16.60" shape="157.97,785.45 162.38,786.67 166.30,790.23 169.60,796.09" />
    </edge>
    <edge id=":20_0" function="internal">
        <lane id=":20_0_0" index="0" speed="3.65" length="4.67" shape="1561.79,328.92 1561.48,330.33 1560.89,331.00 1560.00,330.92 1558.81,330.10" />
    </edge>
    <edge id=":20turn19_0" function="internal">
        <lane id=":20turn19_0_0" index="0" speed="11.18" length="0.10" shape="1529.20,263.80 1529.20,263.80" />
        <lane id=":20turn19_0_1" index="1" speed="11.18" length="0.10" shape="1532.18,262.62 1532.18,262.62" />
    </edge>
    <edge id=":21_0" function="internal">
        <lane id=":21_0_0" index="0" speed="3.65" length="4.67" shape="1476.10,120.98 1476.40,119.57 1477.00,118.90 1477.89,118.98 1479.07,119.80" />
    </edge>
    <edge id=":21turn19_0" function="internal">
        <lane id=":21turn19_0_0" index="0" speed="6.71" length="0.10" shape="1513.52,198.01 1513.52,198.01" />
        <lane id=":21turn19_0_1" index="1" speed="6.71" length="0.10" shape="1510.55,199.19 1510.55,199.19" />
    </edge>
    <edge id=":22_0" function="internal">
        <lane id=":22_0_0" index="0" speed="7.00" length="10.36" shape="1290.09,325.67 1288.63,323.66 1286.65,322.63 1284.16,322.60 1281.15,323.55" />
    </edge>
    <edge id=":22_1" function="internal">
        <lane id=":22_1_0" index="0" speed="13.41" length="36.91" shape="1290.09,325.67 1273.36,292.76" />
    </edge>
    <edge id=":22_2" function="internal">
        <lane id=":22_2_0" index="0" speed="10.39" length="9.13" shape="1292.97,324.29 1290.36,316.72 1290.38,315.60" />
    </edge>
    <edge id=":22_15" function="internal">
        <lane id=":22_15_0" index="0" speed="10.39" length="16.95" shape="1290.38,315.60 1290.45,310.56 1293.22,305.81 1298.70,302.46" />
    </edge>
    <edge id=":22_3" function="internal">
        <lane id=":22_3_0" index="0" speed="8.03" length="15.15" shape="1302.17,311.41 1298.04,313.58 1295.61,316.22 1294.88,319.33 1295.86,322.91" />
    </edge>
    <edge id=":22_4" function="internal">
        <lane id=":22_4_0" index="0" speed="17.88" length="24.41" shape="1302.17,311.41 1295.67,314.47 1291.58,317.29 1287.53,320.20 1281.15,323.55" />
        <lane id=":22_4_1" index="1" speed="17.88" length="24.41" shape="1301.01,308.43 1294.47,311.50 1290.35,314.33 1286.27,317.26 1279.86,320.62" />
    </edge>
    <edge id=":22_6" function="internal">
        <lane id=":22_6_0" index="0" speed="12.04" length="5.36" shape="1299.85,305.45 1294.56,306.31" />
    </edge>
    <edge id=":22_16" function="internal">
        <lane id=":22_16_0" index="0" speed="12.04" length="25.04" shape="1294.56,306.31 1293.37,306.50 1287.26,304.49 1281.54,299.41 1276.19,291.26" />
    </edge>
    <edge id=":22_7" function="internal">
        <lane id=":22_7_0" index="0" speed="9.65" length="19.17" shape="1284.66,286.75 1288.40,293.05 1291.79,297.27 1294.84,299.42 1297.54,299.48" />
    </edge>
    <edge id=":22_8" function="internal">
        <lane id=":22_8_0" index="0" speed="13.41" length="37.41" shape="1281.84,288.25 1286.70,298.62 1290.68,308.85 1293.75,317.45 1295.86,322.91" />
    </edge>
    <edge id=":22_9" function="internal">
        <lane id=":22_9_0" index="0" speed="10.85" length="17.87" shape="1279.01,289.75 1282.83,298.68 1283.81,305.82 1283.50,306.72" />
    </edge>
    <edge id=":22_17" function="internal">
        <lane id=":22_17_0" index="0" speed="10.85" length="10.61" shape="1283.50,306.72 1281.96,311.18 1277.27,314.76" />
    </edge>
    <edge id=":22_10" function="internal">
        <lane id=":22_10_0" index="0" speed="6.35" length="9.04" shape="1270.82,300.12 1272.94,298.80 1274.07,297.13 1274.21,295.12 1273.36,292.76" />
        <lane id=":22_10_1" index="1" speed="7.87" length="14.48" shape="1272.11,303.05 1275.51,300.93 1277.32,298.25 1277.55,295.03 1276.19,291.26" />
    </edge>
    <edge id=":22_12" function="internal">
        <lane id=":22_12_0" index="0" speed="17.88" length="24.99" shape="1273.40,305.98 1280.69,303.34 1286.26,302.19 1291.44,301.31 1297.54,299.48" />
        <lane id=":22_12_1" index="1" speed="17.88" length="24.99" shape="1274.69,308.91 1281.93,306.29 1287.46,305.16 1292.61,304.29 1298.70,302.46" />
    </edge>
    <edge id=":22_14" function="internal">
        <lane id=":22_14_0" index="0" speed="10.70" length="12.62" shape="1275.98,311.84 1281.74,310.54 1286.97,311.95 1287.95,312.80" />
    </edge>
    <edge id=":22_18" function="internal">
        <lane id=":22_18_0" index="0" speed="10.70" length="12.97" shape="1287.95,312.80 1291.68,316.07 1295.86,322.91" />
    </edge>
    <edge id=":22turn19_0" function="internal">
        <lane id=":22turn19_0_0" index="0" speed="17.88" length="8.54" shape="1482.98,227.58 1485.10,226.23 1486.13,224.64 1487.17,223.06 1489.28,221.71" />
        <lane id=":22turn19_0_1" index="1" speed="17.88" length="8.54" shape="1484.14,230.57 1486.25,229.21 1487.29,227.63 1488.33,226.05 1490.44,224.69" />
        <lane id=":22turn19_0_2" index="2" speed="17.88" length="8.54" shape="1484.14,230.57 1491.60,227.67" />
    </edge>
    <edge id=":23_0" function="internal">
        <lane id=":23_0_0" index="0" speed="3.65" length="4.67" shape="1338.00,410.96 1337.80,412.38 1337.25,413.09 1336.35,413.07 1335.11,412.34" />
    </edge>
    <edge id=":24_0" function="internal">
        <lane id=":24_0_0" index="0" speed="3.65" length="4.67" shape="1213.36,173.29 1213.50,171.86 1214.02,171.13 1214.91,171.11 1216.18,171.79" />
    </edge>
    <edge id=":25_0" function="internal">
        <lane id=":25_0_0" index="0" speed="3.65" length="4.67" shape="211.23,402.82 210.77,401.46 210.94,400.58 211.74,400.19 213.18,400.29" />
    </edge>
    <edge id=":25turn33_0" function="internal">
        <lane id=":25turn33_0_0" index="0" speed="17.88" length="10.43" shape="474.74,597.93 478.04,598.57 480.84,596.57 483.64,594.56 486.94,595.21" />
        <lane id=":25turn33_0_1" index="1" speed="17.88" length="10.43" shape="474.74,597.93 477.48,598.78 479.86,597.83 482.24,596.89 484.98,597.74" />
        <lane id=":25turn33_0_2" index="2" speed="17.88" length="10.43" shape="472.79,600.46 475.53,601.31 477.91,600.37 480.29,599.42 483.03,600.28" />
        <lane id=":25turn33_0_3" index="3" speed="17.88" length="10.43" shape="472.79,600.46 475.04,601.57 476.93,601.63 478.82,601.70 481.08,602.81" />
        <lane id=":25turn33_0_4" index="4" speed="17.88" length="10.43" shape="472.79,600.46 479.12,605.34" />
    </edge>
    <edge id=":2turn33_0" function="internal">
        <lane id=":2turn33_0_0" index="0" speed="17.88" length="10.43" shape="425.55,674.94 427.79,672.44 427.50,669.00 427.21,665.57 429.45,663.07" />
        <lane id=":2turn33_0_1" index="1" speed="17.88" length="10.43" shape="425.55,674.94 427.68,673.02 428.09,670.49 428.50,667.96 430.63,666.04" />
        <lane id=":2turn33_0_2" index="2" speed="17.88" length="10.43" shape="426.73,677.91 428.86,675.99 429.27,673.47 429.68,670.94 431.81,669.02" />
        <lane id=":2turn33_0_3" index="3" speed="17.88" length="10.43" shape="426.73,677.91 428.83,676.54 429.86,674.95 430.88,673.36 432.99,671.99" />
        <lane id=":2turn33_0_4" index="4" speed="17.88" length="10.43" shape="426.73,677.91 434.17,674.97" />
    </edge>
    <edge id=":3_0" function="internal">
        <lane id=":3_0_0" index="0" speed="3.65" length="4.67" shape="0.60,850.89 -0.82,850.59 -1.49,850.00 -1.41,849.11 -0.60,847.92" />
    </edge>
    <edge id=":33_0" function="internal">
        <lane id=":33_0_0" index="0" speed="15.45" length="34.13" shape="535.94,666.26 526.42,659.22 518.18,654.77 511.22,652.89 505.54,653.60" />
    </edge>
    <edge id=":33_1" function="internal">
        <lane id=":33_1_0" index="0" speed="17.88" length="51.92" shape="537.97,663.78 499.42,629.07" />
        <lane id=":33_1_1" index="1" speed="17.88" length="51.92" shape="539.99,661.30 501.37,626.54" />
    </edge>
    <edge id=":33_3" function="internal">
        <lane id=":33_3_0" index="0" speed="10.37" length="8.76" shape="542.02,658.83 535.99,652.46" />
    </edge>
    <edge id=":33_19" function="internal">
        <lane id=":33_19_0" index="0" speed="10.37" length="24.94" shape="535.99,652.46 535.12,651.55 532.09,644.20 533.74,637.55 540.91,632.32" />
    </edge>
    <edge id=":33_4" function="internal">
        <lane id=":33_4_0" index="0" speed="5.71" length="9.21" shape="547.07,647.09 544.70,648.47 543.75,650.07 544.20,651.87 546.08,653.88" />
    </edge>
    <edge id=":33_5" function="internal">
        <lane id=":33_5_0" index="0" speed="17.88" length="41.47" shape="545.84,644.13 532.79,648.46 522.02,650.47 513.08,651.69 505.54,653.60" />
        <lane id=":33_5_1" index="1" speed="17.88" length="41.47" shape="544.60,641.18 531.58,645.50 520.82,647.51 511.89,648.71 504.37,650.62" />
    </edge>
    <edge id=":33_7" function="internal">
        <lane id=":33_7_0" index="0" speed="17.88" length="24.71" shape="543.37,638.23 532.82,640.91 521.98,640.28 519.18,639.29" />
        <lane id=":33_7_1" index="1" speed="17.57" length="13.22" shape="542.14,635.27 532.43,637.72 529.22,637.51" />
    </edge>
    <edge id=":33_20" function="internal">
        <lane id=":33_20_0" index="0" speed="17.88" length="22.39" shape="519.18,639.29 510.84,636.34 499.42,629.07" />
    </edge>
    <edge id=":33_21" function="internal">
        <lane id=":33_21_0" index="0" speed="17.57" length="30.50" shape="529.22,637.51 522.40,637.08 512.04,633.35 501.37,626.54" />
    </edge>
    <edge id=":33_9" function="internal">
        <lane id=":33_9_0" index="0" speed="15.31" length="33.04" shape="511.14,613.87 521.57,621.51 529.80,626.64 535.84,629.26 539.67,629.37" />
        <lane id=":33_9_1" index="1" speed="16.03" length="36.29" shape="509.19,616.40 520.37,624.49 529.38,629.84 536.23,632.45 540.91,632.32" />
    </edge>
    <edge id=":33_11" function="internal">
        <lane id=":33_11_0" index="0" speed="17.88" length="52.20" shape="507.23,618.94 546.08,653.88" />
        <lane id=":33_11_1" index="1" speed="17.88" length="52.20" shape="505.28,621.47 544.05,656.35" />
    </edge>
    <edge id=":33_13" function="internal">
        <lane id=":33_13_0" index="0" speed="10.29" length="10.07" shape="503.33,624.01 510.37,631.21" />
    </edge>
    <edge id=":33_22" function="internal">
        <lane id=":33_22_0" index="0" speed="10.29" length="23.98" shape="510.37,631.21 513.40,638.66 511.66,645.44 504.37,650.62" />
    </edge>
    <edge id=":33_14" function="internal">
        <lane id=":33_14_0" index="0" speed="5.65" length="9.25" shape="498.48,635.74 500.91,634.39 501.88,632.82 501.38,631.05 499.42,629.07" />
    </edge>
    <edge id=":33_15" function="internal">
        <lane id=":33_15_0" index="0" speed="17.88" length="41.22" shape="499.66,638.72 512.67,634.61 523.37,632.65 532.21,631.39 539.67,629.37" />
        <lane id=":33_15_1" index="1" speed="17.88" length="41.22" shape="500.83,641.70 513.87,637.58 524.58,635.61 533.44,634.35 540.91,632.32" />
    </edge>
    <edge id=":33_17" function="internal">
        <lane id=":33_17_0" index="0" speed="17.88" length="25.55" shape="502.01,644.67 513.06,641.96 524.09,642.59 527.03,643.65" />
        <lane id=":33_17_1" index="1" speed="17.49" length="14.51" shape="503.19,647.65 513.38,645.17 517.40,645.41" />
    </edge>
    <edge id=":33_23" function="internal">
        <lane id=":33_23_0" index="0" speed="17.88" length="21.76" shape="527.03,643.65 535.09,646.56 546.08,653.88" />
    </edge>