<?xml version="1.0" ?>
<nodes>
    <node id="31" x="719283.2809033486" y="3871928.750384673"/>
    <node id="39" x="719132.067436613" y="3878569.2936191927" type="traffic_light"/>
    <node id="73" x="719065.6055407171" y="3878568.6083885874"/>
    <node id="74" x="719218.041992248" y="3878570.143670403"/>
    <node id="75" x="719152.7480984939" y="3877659.5252276934" type="traffic_light"/>
    <node id="76" x="719097.2799241036" y="3877658.1901036166"/>
    <node id="77" x="719216.7571946671" y="3877660.7609861298"/>
    <node id="78" x="719168.7562563032" y="3876956.3982278802" type="traffic_light"/>
    <node id="79" x="719244.3613075006" y="3876957.302920955"/>
    <node id="80" x="719187.045680911" y="3876145.6798397535" type="traffic_light"/>
    <node id="81" x="719273.666481245" y="3876145.0195798716"/>
    <node id="82" x="719206.5506380175" y="3875334.990618748" type="traffic_light"/>
    <node id="83" x="719321.441788505" y="3875338.0595639623"/>
    <node id="84" x="719242.935835978" y="3873720.8675200026" type="traffic_light"/>
    <node id="85" x="719164.9145940369" y="3873718.9912029086"/>
    <node id="86" x="719348.6839143777" y="3873723.715582448"/>
    <node id="87" x="719279.4095351384" y="3872102.4769942435" type="traffic_light"/>
    <node id="88" x="719218.4480854182" y="3872101.3164248043"/>
    <node id="89" x="719388.5394456035" y="3872104.1856427426"/>
    <node id="97" x="719162.1372972925" y="3873314.5651386464"/>
    <node id="98" x="719248.9089439738" y="3873320.3110643164" type="traffic_light"/>
    <node id="106" x="719129.5124159771" y="3878599.421840956"/>
</nodes>
