<?xml version="1.0" ?>
<edges>
    <edge id="171_1" from="171" to="1" numLanes="1" speed="13.4112" shape="-111.962456619826,33.351515228432 -111.963344034527,33.352086841714 -111.963112509806,33.353408570704 -111.963073214096,33.354573788451">
        <lane index="0" length="381.467709" speed="13.4112"/>
    </edge>
    <edge id="357_2" from="357" to="357_2_bay_node" numLanes="1" speed="15.6464" shape="-111.935176138549,33.446845527085 -111.935196798725,33.450695506969">
        <lane index="0" length="426.884063" speed="15.6464"/>
    </edge>
    <edge id="357_2_bay" from="357_2_bay_node" to="2" numLanes="2" speed="15.6464" shape="-111.935196798725,33.450695506969 -111.935199085593,33.451121590776">
        <lane index="0" length="47.244" speed="15.6464"/>
        <lane index="1" length="47.244" speed="15.6464"/>
    </edge>
    <edge id="101_2" from="101" to="101_2_bay_node" numLanes="1" speed="15.6464" shape="-111.935074499391,33.458409579345 -111.935193212247,33.451465174933">
        <lane index="0" length="770.064488" speed="15.6464"/>
    </edge>
    <edge id="101_2_bay" from="101_2_bay_node" to="2" numLanes="2" speed="15.6464" shape="-111.935193212247,33.451465174933 -111.935199085593,33.451121590776">
        <lane index="0" length="38.1" speed="15.6464"/>
        <lane index="1" length="38.1" speed="15.6464"/>
    </edge>
    <edge id="356_2" from="356" to="356_2_bay_node" numLanes="1" speed="17.8816" shape="-111.937821731534,33.451052860241 -111.935952960105,33.451101840006">
        <lane index="0" length="173.780235" speed="17.8816"/>
    </edge>
    <edge id="356_2_bay" from="356_2_bay_node" to="2" numLanes="2" speed="17.8816" shape="-111.935952960105,33.451101840006 -111.935199085593,33.451121590776">
        <lane index="0" length="70.104" speed="17.8816"/>
        <lane index="1" length="70.104" speed="17.8816"/>
    </edge>
    <edge id="3_2" from="3" to="3_2_bay_node" numLanes="2" speed="17.8816" shape="-111.926491878567,33.451277927439 -111.934477801925,33.451134564564">
        <lane index="0" length="742.430026" speed="17.8816"/>
        <lane index="1" length="742.430026" speed="17.8816"/>
    </edge>
    <edge id="3_2_bay" from="3_2_bay_node" to="2" numLanes="3" speed="17.8816" shape="-111.934477801925,33.451134564564 -111.935199085593,33.451121590776">
        <lane index="0" length="67.056" speed="17.8816"/>
        <lane index="1" length="67.056" speed="17.8816"/>
        <lane index="2" length="67.056" speed="17.8816"/>
    </edge>
    <edge id="225_3" from="225" to="225_3_bay_node" numLanes="3" speed="17.8816" shape="-111.926597229582,33.446771029668 -111.926499909503,33.450934373358">
        <lane index="0" length="461.712866" speed="17.8816"/>
        <lane index="1" length="461.712866" speed="17.8816"/>
        <lane index="2" length="461.712866" speed="17.8816"/>
    </edge>
    <edge id="225_3_bay" from="225_3_bay_node" to="3" numLanes="5" speed="17.8816" shape="-111.926499909503,33.450934373358 -111.926491878567,33.451277927439">
        <lane index="0" length="38.1" speed="17.8816"/>
        <lane index="1" length="38.1" speed="17.8816"/>
        <lane index="2" length="38.1" speed="17.8816"/>
        <lane index="3" length="38.1" speed="17.8816"/>
        <lane index="4" length="38.1" speed="17.8816"/>
    </edge>
    <edge id="351_3" from="351" to="351_3_bay_node" numLanes="3" speed="17.8816" shape="-111.926412616427,33.457054450323 -111.926483392263,33.451896402542">
        <lane index="0" length="571.953622" speed="17.8816"/>
        <lane index="1" length="571.953622" speed="17.8816"/>
        <lane index="2" length="571.953622" speed="17.8816"/>
    </edge>
    <edge id="351_3_bay" from="351_3_bay_node" to="3" numLanes="5" speed="17.8816" shape="-111.926483392263,33.451896402542 -111.926491878567,33.451277927439">
        <lane index="0" length="68.58" speed="17.8816"/>
        <lane index="1" length="68.58" speed="17.8816"/>
        <lane index="2" length="68.58" speed="17.8816"/>
        <lane index="3" length="68.58" speed="17.8816"/>
        <lane index="4" length="68.58" speed="17.8816"/>
    </edge>
    <edge id="2_3" from="2" to="2_3_bay_node" numLanes="2" speed="17.8816" shape="-111.935199085593,33.451121590776 -111.927065629762,33.451267644648">
        <lane index="0" length="756.146026" speed="17.8816"/>
        <lane index="1" length="756.146026" speed="17.8816"/>
    </edge>
    <edge id="2_3_bay" from="2_3_bay_node" to="3" numLanes="3" speed="17.8816" shape="-111.927065629762,33.451267644648 -111.926491878567,33.451277927439">
        <lane index="0" length="53.34" speed="17.8816"/>
        <lane index="1" length="53.34" speed="17.8816"/>
        <lane index="2" length="53.34" speed="17.8816"/>
    </edge>
    <edge id="352_3" from="352" to="352_3_bay_node" numLanes="2" speed="17.8816" shape="-111.917761718502,33.451301740068 -111.926032775132,33.451279195016">
        <lane index="0" length="768.763859" speed="17.8816"/>
        <lane index="1" length="768.763859" speed="17.8816"/>
    </edge>
    <edge id="352_3_bay" from="352_3_bay_node" to="3" numLanes="3" speed="17.8816" shape="-111.926032775132,33.451279195016 -111.926491878567,33.451277927439">
        <lane index="0" length="42.672" speed="17.8816"/>
        <lane index="1" length="42.672" speed="17.8816"/>
        <lane index="2" length="42.672" speed="17.8816"/>
    </edge>
    <edge id="411_4" from="411" to="4" numLanes="3" speed="13.4112" shape="-111.894047678520,33.365144987723 -111.893477263404,33.366299020161">
        <lane index="0" length="138.523417" speed="13.4112"/>
        <lane index="1" length="138.523417" speed="13.4112"/>
        <lane index="2" length="138.523417" speed="13.4112"/>
    </edge>
    <edge id="503_5" from="503" to="503_5_bay_node" numLanes="3" speed="15.6464" shape="-111.956607643817,33.442636315426 -111.955601294129,33.443199675041 -111.955087115082,33.443878761816 -111.955066046170,33.443936420672">
        <lane index="0" length="208.355011" speed="15.6464"/>
        <lane index="1" length="208.355011" speed="15.6464"/>
        <lane index="2" length="208.355011" speed="15.6464"/>
    </edge>
    <edge id="503_5_bay" from="503_5_bay_node" to="5" numLanes="5" speed="15.6464" shape="-111.955066046170,33.443936420672 -111.954801925815,33.444659226805">
        <lane index="0" length="83.82" speed="15.6464"/>
        <lane index="1" length="83.82" speed="15.6464"/>
        <lane index="2" length="83.82" speed="15.6464"/>
        <lane index="3" length="83.82" speed="15.6464"/>
        <lane index="4" length="83.82" speed="15.6464"/>
    </edge>
    <edge id="312_5" from="312" to="312_5_bay_node" numLanes="3" speed="15.6464" shape="-111.954848195460,33.446330073034 -111.954823234692,33.445428724728">
        <lane index="0" length="99.967367" speed="15.6464"/>
        <lane index="1" length="99.967367" speed="15.6464"/>
        <lane index="2" length="99.967367" speed="15.6464"/>
    </edge>
    <edge id="312_5_bay" from="312_5_bay_node" to="5" numLanes="5" speed="15.6464" shape="-111.954823234692,33.445428724728 -111.954801925815,33.444659226805">
        <lane index="0" length="85.344" speed="15.6464"/>
        <lane index="1" length="85.344" speed="15.6464"/>
        <lane index="2" length="85.344" speed="15.6464"/>
        <lane index="3" length="85.344" speed="15.6464"/>
        <lane index="4" length="85.344" speed="15.6464"/>
    </edge>
    <edge id="284_5" from="284" to="284_5_bay_node" numLanes="2" speed="13.4112" shape="-111.956100090372,33.444867871518 -111.955156170744,33.444716163515">
        <lane index="0" length="89.338373" speed="13.4112"/>
        <lane index="1" length="89.338373" speed="13.4112"/>
    </edge>
    <edge id="284_5_bay" from="284_5_bay_node" to="5" numLanes="3" speed="13.4112" shape="-111.955156170744,33.444716163515 -111.954801925815,33.444659226805">
        <lane index="0" length="33.528" speed="13.4112"/>
        <lane index="1" length="33.528" speed="13.4112"/>
        <lane index="2" length="33.528" speed="13.4112"/>
    </edge>
    <edge id="313_5" from="313" to="313_5_bay_node" numLanes="2" speed="13.4112" shape="-111.950999241203,33.443959000306 -111.954289490419,33.444564874423">
        <lane index="0" length="313.132358" speed="13.4112"/>
        <lane index="1" length="313.132358" speed="13.4112"/>
    </edge>
    <edge id="313_5_bay" from="313_5_bay_node" to="5" numLanes="4" speed="13.4112" shape="-111.954289490419,33.444564874423 -111.954801925815,33.444659226805">
        <lane index="0" length="48.768" speed="13.4112"/>
        <lane index="1" length="48.768" speed="13.4112"/>
        <lane index="2" length="48.768" speed="13.4112"/>
        <lane index="3" length="48.768" speed="13.4112"/>
    </edge>
    <edge id="7002_6" from="7002" to="7002_6_bay_node" numLanes="4" speed="20.1168" shape="-111.961145041018,33.433833228535 -111.960983402820,33.436658741466">
        <lane index="0" length="313.649569" speed="20.1168"/>
        <lane index="1" length="313.649569" speed="20.1168"/>
        <lane index="2" length="313.649569" speed="20.1168"/>
        <lane index="3" length="313.649569" speed="20.1168"/>
    </edge>
    <edge id="7002_6_bay" from="7002_6_bay_node" to="6" numLanes="5" speed="20.1168" shape="-111.960983402820,33.436658741466 -111.960955913427,33.437139254862">
        <lane index="0" length="53.34" speed="20.1168"/>
        <lane index="1" length="53.34" speed="20.1168"/>
        <lane index="2" length="53.34" speed="20.1168"/>
        <lane index="3" length="53.34" speed="20.1168"/>
        <lane index="4" length="53.34" speed="20.1168"/>
    </edge>
    <edge id="306_6" from="306" to="306_6_bay_node" numLanes="4" speed="20.1168" shape="-111.960910449970,33.438582026108 -111.960920843579,33.438252190112">
        <lane index="0" length="36.584589" speed="20.1168"/>
        <lane index="1" length="36.584589" speed="20.1168"/>
        <lane index="2" length="36.584589" speed="20.1168"/>
        <lane index="3" length="36.584589" speed="20.1168"/>
    </edge>
    <edge id="306_6_bay" from="306_6_bay_node" to="6" numLanes="5" speed="20.1168" shape="-111.960920843579,33.438252190112 -111.960955913427,33.437139254862">
        <lane index="0" length="123.444" speed="20.1168"/>
        <lane index="1" length="123.444" speed="20.1168"/>
        <lane index="2" length="123.444" speed="20.1168"/>
        <lane index="3" length="123.444" speed="20.1168"/>
        <lane index="4" length="123.444" speed="20.1168"/>
    </edge>
    <edge id="339_6" from="339" to="339_6_bay_node" numLanes="3" speed="13.4112" shape="-111.963571691486,33.437465710071 -111.961685596718,33.437230326855">
        <lane index="0" length="177.26585" speed="13.4112"/>
        <lane index="1" length="177.26585" speed="13.4112"/>
        <lane index="2" length="177.26585" speed="13.4112"/>
    </edge>
    <edge id="339_6_bay" from="339_6_bay_node" to="6" numLanes="4" speed="13.4112" shape="-111.961685596718,33.437230326855 -111.960955913427,33.437139254862">
        <lane index="0" length="68.58" speed="13.4112"/>
        <lane index="1" length="68.58" speed="13.4112"/>
        <lane index="2" length="68.58" speed="13.4112"/>
        <lane index="3" length="68.58" speed="13.4112"/>
    </edge>
    <edge id="10_7" from="10" to="10_7_bay_node" numLanes="3" speed="17.8816" shape="-111.926407747144,33.440326685977 -111.926475612745,33.443717806418">
        <lane index="0" length="376.053988" speed="17.8816"/>
        <lane index="1" length="376.053988" speed="17.8816"/>
        <lane index="2" length="376.053988" speed="17.8816"/>
    </edge>
    <edge id="10_7_bay" from="10_7_bay_node" to="7" numLanes="4" speed="17.8816" shape="-111.926475612745,33.443717806418 -111.926482764093,33.444075121372">
        <lane index="0" length="39.624" speed="17.8816"/>
        <lane index="1" length="39.624" speed="17.8816"/>
        <lane index="2" length="39.624" speed="17.8816"/>
        <lane index="3" length="39.624" speed="17.8816"/>
    </edge>
    <edge id="225_7" from="225" to="225_7_bay_node" numLanes="3" speed="17.8816" shape="-111.926597229582,33.446771029668 -111.926497344118,33.444418524320">
        <lane index="0" length="261.006719" speed="17.8816"/>
        <lane index="1" length="261.006719" speed="17.8816"/>
        <lane index="2" length="261.006719" speed="17.8816"/>
    </edge>
    <edge id="225_7_bay" from="225_7_bay_node" to="7" numLanes="4" speed="17.8816" shape="-111.926497344118,33.444418524320 -111.926482764093,33.444075121372">
        <lane index="0" length="38.1" speed="17.8816"/>
        <lane index="1" length="38.1" speed="17.8816"/>
        <lane index="2" length="38.1" speed="17.8816"/>
        <lane index="3" length="38.1" speed="17.8816"/>
    </edge>
    <edge id="484_7" from="484" to="484_7_bay_node" numLanes="1" speed="13.4112" shape="-111.928223407491,33.444055994696 -111.927351639433,33.444065576982">
        <lane index="0" length="81.040943" speed="13.4112"/>
    </edge>
    <edge id="484_7_bay" from="484_7_bay_node" to="7" numLanes="3" speed="13.4112" shape="-111.927351639433,33.444065576982 -111.926482764093,33.444075121372">
        <lane index="0" length="80.772" speed="13.4112"/>
        <lane index="1" length="80.772" speed="13.4112"/>
        <lane index="2" length="80.772" speed="13.4112"/>
    </edge>
    <edge id="326_7" from="326" to="7" numLanes="3" speed="13.4112" shape="-111.922214752891,33.444052763017 -111.926482764093,33.444075121372">
        <lane index="0" length="396.734463" speed="13.4112"/>
        <lane index="1" length="396.734463" speed="13.4112"/>
        <lane index="2" length="396.734463" speed="13.4112"/>
    </edge>
    <edge id="329_8" from="329" to="8" numLanes="5" speed="15.6464" shape="-111.943049347592,33.436795418096 -111.943387042167,33.437691282765">
        <lane index="0" length="104.174583" speed="15.6464"/>
        <lane index="1" length="104.174583" speed="15.6464"/>
        <lane index="2" length="104.174583" speed="15.6464"/>
        <lane index="3" length="104.174583" speed="15.6464"/>
        <lane index="4" length="104.174583" speed="15.6464"/>
    </edge>
    <edge id="314_8" from="314" to="314_8_bay_node" numLanes="2" speed="15.6464" shape="-111.945242605833,33.440521707175 -111.944292020666,33.439686276009 -111.943819717852,33.438787780965 -111.943593008388,33.438213251602">
        <lane index="0" length="303.986865" speed="15.6464"/>
        <lane index="1" length="303.986865" speed="15.6464"/>
    </edge>
    <edge id="314_8_bay" from="314_8_bay_node" to="8" numLanes="5" speed="15.6464" shape="-111.943593008388,33.438213251602 -111.943387042167,33.437691282765">
        <lane index="0" length="60.96" speed="15.6464"/>
        <lane index="1" length="60.96" speed="15.6464"/>
        <lane index="2" length="60.96" speed="15.6464"/>
        <lane index="3" length="60.96" speed="15.6464"/>
        <lane index="4" length="60.96" speed="15.6464"/>
    </edge>
    <edge id="507_8" from="507" to="507_8_bay_node" numLanes="2" speed="20.1168" shape="-111.945432362073,33.437432807778 -111.944691581816,33.437262422245 -111.944103622544,33.437418679887">
        <lane index="0" length="128.745749" speed="20.1168"/>
        <lane index="1" length="128.745749" speed="20.1168"/>
    </edge>
    <edge id="507_8_bay" from="507_8_bay_node" to="8" numLanes="5" speed="20.1168" shape="-111.944103622544,33.437418679887 -111.944101601399,33.437419217027 -111.943387042167,33.437691282765">
        <lane index="0" length="73.152" speed="20.1168"/>
        <lane index="1" length="73.152" speed="20.1168"/>
        <lane index="2" length="73.152" speed="20.1168"/>
        <lane index="3" length="73.152" speed="20.1168"/>
        <lane index="4" length="73.152" speed="20.1168"/>
    </edge>
    <edge id="320_8" from="320" to="320_8_bay_node" numLanes="2" speed="20.1168" shape="-111.937834484831,33.439150775497 -111.939722534308,33.439255189581 -111.941518677665,33.438425016134 -111.942644739852,33.437982800284">
        <lane index="0" length="482.146195" speed="20.1168"/>
        <lane index="1" length="482.146195" speed="20.1168"/>
    </edge>
    <edge id="320_8_bay" from="320_8_bay_node" to="8" numLanes="4" speed="20.1168" shape="-111.942644739852,33.437982800284 -111.943387042167,33.437691282765">
        <lane index="0" length="76.2" speed="20.1168"/>
        <lane index="1" length="76.2" speed="20.1168"/>
        <lane index="2" length="76.2" speed="20.1168"/>
        <lane index="3" length="76.2" speed="20.1168"/>
    </edge>
    <edge id="349_9" from="349" to="349_9_bay_node" numLanes="2" speed="15.6464" shape="-111.930177408577,33.439079250781 -111.930691322458,33.439909580464">
        <lane index="0" length="103.722091" speed="15.6464"/>
        <lane index="1" length="103.722091" speed="15.6464"/>
    </edge>
    <edge id="349_9_bay" from="349_9_bay_node" to="9" numLanes="3" speed="15.6464" shape="-111.930691322458,33.439909580464 -111.930895202014,33.440238983162">
        <lane index="0" length="41.148" speed="15.6464"/>
        <lane index="1" length="41.148" speed="15.6464"/>
        <lane index="2" length="41.148" speed="15.6464"/>
    </edge>
    <edge id="350_9" from="350" to="350_9_bay_node" numLanes="1" speed="15.6464" shape="-111.930957408442,33.441753197471 -111.930916081725,33.440747239870">
        <lane index="0" length="111.604912" speed="15.6464"/>
    </edge>
    <edge id="350_9_bay" from="350_9_bay_node" to="9" numLanes="3" speed="15.6464" shape="-111.930916081725,33.440747239870 -111.930895202014,33.440238983162">
        <lane index="0" length="56.388" speed="15.6464"/>
        <lane index="1" length="56.388" speed="15.6464"/>
        <lane index="2" length="56.388" speed="15.6464"/>
    </edge>
    <edge id="319_9" from="319" to="319_9_bay_node" numLanes="2" speed="20.1168" shape="-111.934802459962,33.440162109938 -111.931550803578,33.440226093151">
        <lane index="0" length="302.35014" speed="20.1168"/>
        <lane index="1" length="302.35014" speed="20.1168"/>
    </edge>
    <edge id="319_9_bay" from="319_9_bay_node" to="9" numLanes="4" speed="20.1168" shape="-111.931550803578,33.440226093151 -111.930895202014,33.440238983162">
        <lane index="0" length="60.96" speed="20.1168"/>
        <lane index="1" length="60.96" speed="20.1168"/>
        <lane index="2" length="60.96" speed="20.1168"/>
        <lane index="3" length="60.96" speed="20.1168"/>
    </edge>
    <edge id="10_9" from="10" to="10_9_bay_node" numLanes="2" speed="17.8816" shape="-111.926407747144,33.440326685977 -111.930321548871,33.440250203698">
        <lane index="0" length="363.916565" speed="17.8816"/>
        <lane index="1" length="363.916565" speed="17.8816"/>
    </edge>
    <edge id="10_9_bay" from="10_9_bay_node" to="9" numLanes="3" speed="17.8816" shape="-111.930321548871,33.440250203698 -111.930895202014,33.440238983162">
        <lane index="0" length="53.34" speed="17.8816"/>
        <lane index="1" length="53.34" speed="17.8816"/>
        <lane index="2" length="53.34" speed="17.8816"/>
    </edge>
    <edge id="17_10" from="17" to="17_10_bay_node" numLanes="3" speed="17.8816" shape="-111.926378672835,33.436108323279 -111.926404431122,33.439845625109">
        <lane index="0" length="414.39166" speed="17.8816"/>
        <lane index="1" length="414.39166" speed="17.8816"/>
        <lane index="2" length="414.39166" speed="17.8816"/>
    </edge>
    <edge id="17_10_bay" from="17_10_bay_node" to="10" numLanes="5" speed="17.8816" shape="-111.926404431122,33.439845625109 -111.926407747144,33.440326685977">
        <lane index="0" length="53.34" speed="17.8816"/>
        <lane index="1" length="53.34" speed="17.8816"/>
        <lane index="2" length="53.34" speed="17.8816"/>
        <lane index="3" length="53.34" speed="17.8816"/>
        <lane index="4" length="53.34" speed="17.8816"/>
    </edge>
    <edge id="7_10" from="7" to="7_10_bay_node" numLanes="3" speed="17.8816" shape="-111.926482764093,33.444075121372 -111.926417097753,33.440793944260">
        <lane index="0" length="363.861988" speed="17.8816"/>
        <lane index="1" length="363.861988" speed="17.8816"/>
        <lane index="2" length="363.861988" speed="17.8816"/>
    </edge>
    <edge id="7_10_bay" from="7_10_bay_node" to="10" numLanes="5" speed="17.8816" shape="-111.926417097753,33.440793944260 -111.926407747144,33.440326685977">
        <lane index="0" length="51.816" speed="17.8816"/>
        <lane index="1" length="51.816" speed="17.8816"/>
        <lane index="2" length="51.816" speed="17.8816"/>
        <lane index="3" length="51.816" speed="17.8816"/>
        <lane index="4" length="51.816" speed="17.8816"/>
    </edge>
    <edge id="9_10" from="9" to="9_10_bay_node" numLanes="2" speed="17.8816" shape="-111.930895202014,33.440238983162 -111.926850280706,33.440318044324">
        <lane index="0" length="376.108565" speed="17.8816"/>
        <lane index="1" length="376.108565" speed="17.8816"/>
    </edge>
    <edge id="9_10_bay" from="9_10_bay_node" to="10" numLanes="5" speed="17.8816" shape="-111.926850280706,33.440318044324 -111.926407747144,33.440326685977">
        <lane index="0" length="41.148" speed="17.8816"/>
        <lane index="1" length="41.148" speed="17.8816"/>
        <lane index="2" length="41.148" speed="17.8816"/>
        <lane index="3" length="41.148" speed="17.8816"/>
        <lane index="4" length="41.148" speed="17.8816"/>
    </edge>
    <edge id="11_10" from="11" to="11_10_bay_node" numLanes="2" speed="17.8816" shape="-111.918029400351,33.440449474284 -111.925391438958,33.440341610593">
        <lane index="0" length="684.460442" speed="17.8816"/>
        <lane index="1" length="684.460442" speed="17.8816"/>
    </edge>
    <edge id="11_10_bay" from="11_10_bay_node" to="10" numLanes="5" speed="17.8816" shape="-111.925391438958,33.440341610593 -111.926407747144,33.440326685977">
        <lane index="0" length="94.488" speed="17.8816"/>
        <lane index="1" length="94.488" speed="17.8816"/>
        <lane index="2" length="94.488" speed="17.8816"/>
        <lane index="3" length="94.488" speed="17.8816"/>
        <lane index="4" length="94.488" speed="17.8816"/>
    </edge>
    <edge id="173_11" from="173" to="173_11_bay_node" numLanes="1" speed="13.4112" shape="-111.917996958045,33.438742889113 -111.918020517393,33.439982208792">
        <lane index="0" length="137.430605" speed="13.4112"/>
    </edge>
    <edge id="173_11_bay" from="173_11_bay_node" to="11" numLanes="2" speed="13.4112" shape="-111.918020517393,33.439982208792 -111.918029400351,33.440449474284">
        <lane index="0" length="51.816" speed="13.4112"/>
        <lane index="1" length="51.816" speed="13.4112"/>
    </edge>
    <edge id="327_11" from="327" to="327_11_bay_node" numLanes="1" speed="13.4112" shape="-111.918028670062,33.444156682433 -111.918029332502,33.440793095459">
        <lane index="0" length="372.947626" speed="13.4112"/>
    </edge>
    <edge id="327_11_bay" from="327_11_bay_node" to="11" numLanes="2" speed="13.4112" shape="-111.918029332502,33.440793095459 -111.918029400351,33.440449474284">
        <lane index="0" length="38.1" speed="13.4112"/>
        <lane index="1" length="38.1" speed="13.4112"/>
    </edge>
    <edge id="10_11" from="10" to="10_11_bay_node" numLanes="2" speed="17.8816" shape="-111.926407747144,33.440326685977 -111.918439203712,33.440443481609">
        <lane index="0" length="740.848442" speed="17.8816"/>
        <lane index="1" length="740.848442" speed="17.8816"/>
    </edge>
    <edge id="10_11_bay" from="10_11_bay_node" to="11" numLanes="3" speed="17.8816" shape="-111.918439203712,33.440443481609 -111.918029400351,33.440449474284">
        <lane index="0" length="38.1" speed="17.8816"/>
        <lane index="1" length="38.1" speed="17.8816"/>
        <lane index="2" length="38.1" speed="17.8816"/>
    </edge>
    <edge id="12_11" from="12" to="12_11_bay_node" numLanes="2" speed="17.8816" shape="-111.909588806179,33.440379315554 -111.917685129923,33.440446623931">
        <lane index="0" length="752.648845" speed="17.8816"/>
        <lane index="1" length="752.648845" speed="17.8816"/>
    </edge>
    <edge id="12_11_bay" from="12_11_bay_node" to="11" numLanes="3" speed="17.8816" shape="-111.917685129923,33.440446623931 -111.918029400351,33.440449474284">
        <lane index="0" length="32.004" speed="17.8816"/>
        <lane index="1" length="32.004" speed="17.8816"/>
        <lane index="2" length="32.004" speed="17.8816"/>
    </edge>
    <edge id="19_12" from="19" to="19_12_bay_node" numLanes="3" speed="20.1168" shape="-111.909435823198,33.436729783921 -111.909567500245,33.439871069124">
        <lane index="0" length="348.513473" speed="20.1168"/>
        <lane index="1" length="348.513473" speed="20.1168"/>
        <lane index="2" length="348.513473" speed="20.1168"/>
    </edge>
    <edge id="19_12_bay" from="19_12_bay_node" to="12" numLanes="4" speed="20.1168" shape="-111.909567500245,33.439871069124 -111.909588806179,33.440379315554">
        <lane index="0" length="56.388" speed="20.1168"/>
        <lane index="1" length="56.388" speed="20.1168"/>
        <lane index="2" length="56.388" speed="20.1168"/>
        <lane index="3" length="56.388" speed="20.1168"/>
    </edge>
    <edge id="328_12" from="328" to="12" numLanes="3" speed="20.1168" shape="-111.909373858928,33.446735661458 -111.909588806179,33.440379315554">
        <lane index="0" length="705.060696" speed="20.1168"/>
        <lane index="1" length="705.060696" speed="20.1168"/>
        <lane index="2" length="705.060696" speed="20.1168"/>
    </edge>
    <edge id="11_12" from="11" to="11_12_bay_node" numLanes="2" speed="17.8816" shape="-111.918029400351,33.440449474284 -111.910424891532,33.440386290795">
        <lane index="0" length="706.928845" speed="17.8816"/>
        <lane index="1" length="706.928845" speed="17.8816"/>
    </edge>
    <edge id="11_12_bay" from="11_12_bay_node" to="12" numLanes="3" speed="17.8816" shape="-111.910424891532,33.440386290795 -111.909588806179,33.440379315554">
        <lane index="0" length="77.724" speed="17.8816"/>
        <lane index="1" length="77.724" speed="17.8816"/>
        <lane index="2" length="77.724" speed="17.8816"/>
    </edge>
    <edge id="24_13" from="24" to="24_13_bay_node" numLanes="3" speed="17.8816" shape="-111.960909887397,33.425558684085 -111.960910887615,33.428952420202">
        <lane index="0" length="376.292826" speed="17.8816"/>
        <lane index="1" length="376.292826" speed="17.8816"/>
        <lane index="2" length="376.292826" speed="17.8816"/>
    </edge>
    <edge id="24_13_bay" from="24_13_bay_node" to="13" numLanes="6" speed="17.8816" shape="-111.960910887615,33.428952420202 -111.960911078397,33.429598423621">
        <lane index="0" length="71.628" speed="17.8816"/>
        <lane index="1" length="71.628" speed="17.8816"/>
        <lane index="2" length="71.628" speed="17.8816"/>
        <lane index="3" length="71.628" speed="17.8816"/>
        <lane index="4" length="71.628" speed="17.8816"/>
        <lane index="5" length="71.628" speed="17.8816"/>
    </edge>
    <edge id="7002_13" from="7002" to="7002_13_bay_node" numLanes="3" speed="20.1168" shape="-111.961145041018,33.433833228535 -111.960944452903,33.430202544958">
        <lane index="0" length="402.997229" speed="20.1168"/>
        <lane index="1" length="402.997229" speed="20.1168"/>
        <lane index="2" length="402.997229" speed="20.1168"/>
    </edge>
    <edge id="7002_13_bay" from="7002_13_bay_node" to="13" numLanes="6" speed="20.1168" shape="-111.960944452903,33.430202544958 -111.960911078397,33.429598423621">
        <lane index="0" length="67.056" speed="20.1168"/>
        <lane index="1" length="67.056" speed="20.1168"/>
        <lane index="2" length="67.056" speed="20.1168"/>
        <lane index="3" length="67.056" speed="20.1168"/>
        <lane index="4" length="67.056" speed="20.1168"/>
        <lane index="5" length="67.056" speed="20.1168"/>
    </edge>
    <edge id="7001_13" from="7001" to="7001_13_bay_node" numLanes="2" speed="17.8816" shape="-111.966768656274,33.431487778264 -111.964280969038,33.431850505235 -111.961539195863,33.430018207505">
        <lane index="0" length="560.702276" speed="17.8816"/>
        <lane index="1" length="560.702276" speed="17.8816"/>
    </edge>
    <edge id="7001_13_bay" from="7001_13_bay_node" to="13" numLanes="5" speed="17.8816" shape="-111.961539195863,33.430018207505 -111.960911078397,33.429598423621">
        <lane index="0" length="74.676" speed="17.8816"/>
        <lane index="1" length="74.676" speed="17.8816"/>
        <lane index="2" length="74.676" speed="17.8816"/>
        <lane index="3" length="74.676" speed="17.8816"/>
        <lane index="4" length="74.676" speed="17.8816"/>
    </edge>
    <edge id="486_13" from="486" to="486_13_bay_node" numLanes="2" speed="17.8816" shape="-111.959469118121,33.430101620349 -111.959927364342,33.429941709917">
        <lane index="0" length="46.14512" speed="17.8816"/>
        <lane index="1" length="46.14512" speed="17.8816"/>
    </edge>
    <edge id="486_13_bay" from="486_13_bay_node" to="13" numLanes="5" speed="17.8816" shape="-111.959927364342,33.429941709917 -111.960911078397,33.429598423621">
        <lane index="0" length="99.06" speed="17.8816"/>
        <lane index="1" length="99.06" speed="17.8816"/>
        <lane index="2" length="99.06" speed="17.8816"/>
        <lane index="3" length="99.06" speed="17.8816"/>
        <lane index="4" length="99.06" speed="17.8816"/>
    </edge>
    <edge id="5230_14" from="5230" to="5230_14_bay_node" numLanes="1" speed="13.4112" shape="-111.952355461099,33.422784557102 -111.952357004194,33.430630343082">
        <lane index="0" length="869.928427" speed="13.4112"/>
    </edge>