<?xml version="1.0" ?>
<additional>
    <inductionLoop id="357_2_bay_0_detector" lane="357_2_bay_0" pos="-8" friendlyPos="true" file="output_loop_detector_202605311417.xml"/>
    <inductionLoop id="357_2_bay_1_detector" lane="357_2_bay_1" pos="-8" friendlyPos="true" file="output_loop_detector_202605311417.xml"/>
    <inductionLoop id="101_2_bay_0_detector" lane="101_2_bay_0" pos="-8" friendlyPos="true" file="output_loop_detector_202605311417.xml"/>
    <inductionLoop id="101_2_bay_1_detector" lane="101_2_bay_1" pos="-8" friendlyPos="true" file="output_loop_detector_202605311417.xml"/>
    <inductionLoop id="356_2_bay_0_detector" lane="356_2_bay_0" pos="-8" friendlyPos="true" file="output_loop_detector_202605311417.xml"/>
    <inductionLoop id="356_2_bay_1_detector" lane="356_2_bay_1" pos="-8" friendlyPos="true" file="output_loop_detector_202605311417.xml"/>
    <inductionLoop id="3_2_bay_0_detector" lane="3_2_bay_0" pos="-8" friendlyPos="true" file="output_loop_detector_202605311417.xml"/>
    <inductionLoop id="3_2_bay_1_detector" lane="3_2_bay_1" pos="-8" friendlyPos="true" file="output_loop_detector_202605311417.xml"/>
    <inductionLoop id="3_2_bay_2_detector" lane="3_2_bay_2" pos="-8" friendlyPos="true" file="output_loop_detector_202605311417.xml"/>
    <inductionLoop id="225_3_bay_0_detector" lane="225_3_bay_0" pos="-8" friendlyPos="true" file="output_loop_detector_202605311417.xml"/>
    <inductionLoop id="225_3_bay_1_detector" lane="225_3_bay_1" pos="-8" friendlyPos="true" file="output_loop_detector_202605311417.xml"/>
    <inductionLoop id="225_3_bay_2_detector" lane="225_3_bay_2" pos="-8" friendlyPos="true" file="output_loop_detector_202605311417.xml"/>
    <inductionLoop id="225_3_bay_3_detector" lane="225_3_bay_3" pos="-8" friendlyPos="true" file="output_loop_detector_202605311417.xml"/>
    <inductionLoop id="225_3_bay_4_detector" lane="225_3_bay_4" pos="-8" friendlyPos="true" file="output_loop_detector_202605311417.xml"/>
    <inductionLoop id="351_3_bay_0_detector" lane="351_3_bay_0" pos="-8" friendlyPos="true" file="output_loop_detector_202605311417.xml"/>
    <inductionLoop id="351_3_bay_1_detector" lane="351_3_bay_1" pos="-8" friendlyPos="true" file="output_loop_detector_202605311417.xml"/>
    <inductionLoop id="351_3_bay_2_detector" lane="351_3_bay_2" pos="-8" friendlyPos="true" file="output_loop_detector_202605311417.xml"/>
    <inductionLoop id="351_3_bay_3_detector" lane="351_3_bay_3" pos="-8" friendlyPos="true" file="output_loop_detector_202605311417.xml"/>
    <inductionLoop id="351_3_bay_4_detector" lane="351_3_bay_4" pos="-8" friendlyPos="true" file="output_loop_detector_202605311417.xml"/>
    <inductionLoop id="2_3_bay_0_detector" lane="2_3_bay_0" pos="-8" friendlyPos="true" file="output_loop_detector_202605311417.xml"/>
    <inductionLoop id="2_3_bay_1_detector" lane="2_3_bay_1" pos="-8" friendlyPos="true" file="output_loop_detector_202605311417.xml"/>
    <inductionLoop id="2_3_bay_2_detector" lane="2_3_bay_2" pos="-8" friendlyPos="true" file="output_loop_detector_202605311417.xml"/>
    <inductionLoop id="352_3_bay_0_detector" lane="352_3_bay_0" pos="-8" friendlyPos="true" file="output_loop_detector_202605311417.xml"/>
    <inductionLoop id="352_3_bay_1_detector" lane="352_3_bay_1" pos="-8" friendlyPos="true" file="output_loop_detector_202605311417.xml"/>
    <inductionLoop id="352_3_bay_2_detector" lane="352_3_bay_2" pos="-8" friendlyPos="true" file="output_loop_detector_202605311417.xml"/>
    <inductionLoop id="503_5_bay_0_detector" lane="503_5_bay_0" pos="-8" friendlyPos="true" file="output_loop_detector_202605311417.xml"/>
    <inductionLoop id="503_5_bay_1_detector" lane="503_5_bay_1" pos="-8" friendlyPos="true" file="output_loop_detector_202605311417.xml"/>
    <inductionLoop id="503_5_bay_2_detector" lane="503_5_bay_2" pos="-8" friendlyPos="true" file="output_loop_detector_202605311417.xml"/>
    <inductionLoop id="503_5_bay_3_detector" lane="503_5_bay_3" pos="-8" friendlyPos="true" file="output_loop_detector_202605311417.xml"/>
    <inductionLoop id="503_5_bay_4_detector" lane="503_5_bay_4" pos="-8" friendlyPos="true" file="output_loop_detector_202605311417.xml"/>
    <inductionLoop id="312_5_bay_0_detector" lane="312_5_bay_0" pos="-8" friendlyPos="true" file="output_loop_detector_202605311417.xml"/>
    <inductionLoop id="312_5_bay_1_detector" lane="312_5_bay_1" pos="-8" friendlyPos="true" file="output_loop_detector_202605311417.xml"/>
    <inductionLoop id="312_5_bay_2_detector" lane="312_5_bay_2" pos="-8" friendlyPos="true" file="output_loop_detector_202605311417.xml"/>
    <inductionLoop id="312_5_bay_3_detector" lane="312_5_bay_3" pos="-8" friendlyPos="true" file="output_loop_detector_202605311417.xml"/>
    <inductionLoop id="312_5_bay_4_detector" lane="312_5_bay_4" pos="-8" friendlyPos="true" file="output_loop_detector_202605311417.xml"/>
    <inductionLoop id="284_5_bay_0_detector" lane="284_5_bay_0" pos="-8" friendlyPos="true" file="output_loop_detector_202605311417.xml"/>
    <inductionLoop id="284_5_bay_1_detector" lane="284_5_bay_1" pos="-8" friendlyPos="true" file="output_loop_detector_202605311417.xml"/>
    <inductionLoop id="284_5_bay_2_detector" lane="284_5_bay_2" pos="-8" friendlyPos="true" file="output_loop_detector_202605311417.xml"/>
    <inductionLoop id="313_5_bay_0_detector" lane="313_5_bay_0" pos="-8" friendlyPos="true" file="output_loop_detector_202605311417.xml"/>
    <inductionLoop id="313_5_bay_1_detector" lane="313_5_bay_1" pos="-8" friendlyPos="true" file="output_loop_detector_202605311417.xml"/>
    <inductionLoop id="313_5_bay_2_detector" lane="313_5_bay_2" pos="-8" friendlyPos="true" file="output_loop_detector_202605311417.xml"/>
    <inductionLoop id="313_5_bay_3_detector" lane="313_5_bay_3" pos="-8" friendlyPos="true" file="output_loop_detector_202605311417.xml"/>
    <inductionLoop id="7002_6_bay_0_detector" lane="7002_6_bay_0" pos="-8" friendlyPos="true" file="output_loop_detector_202605311417.xml"/>
    <inductionLoop id="7002_6_bay_1_detector" lane="7002_6_bay_1" pos="-8" friendlyPos="true" file="output_loop_detector_202605311417.xml"/>
    <inductionLoop id="7002_6_bay_2_detector" lane="7002_6_bay_2" pos="-8" friendlyPos="true" file="output_loop_detector_202605311417.xml"/>
    <inductionLoop id="7002_6_bay_3_detector" lane="7002_6_bay_3" pos="-8" friendlyPos="true" file="output_loop_detector_202605311417.xml"/>
    <inductionLoop id="7002_6_bay_4_detector" lane="7002_6_bay_4" pos="-8" friendlyPos="true" file="output_loop_detector_202605311417.xml"/>
    <inductionLoop id="306_6_bay_0_detector" lane="306_6_bay_0" pos="-8" friendlyPos="true" file="output_loop_detector_202605311417.xml"/>
    <inductionLoop id="306_6_bay_1_detector" lane="306_6_bay_1" pos="-8" friendlyPos="true" file="output_loop_detector_202605311417.xml"/>
    <inductionLoop id="306_6_bay_2_detector" lane="306_6_bay_2" pos="-8" friendlyPos="true" file="output_loop_detector_202605311417.xml"/>
    <inductionLoop id="306_6_bay_3_detector" lane="306_6_bay_3" pos="-8" friendlyPos="true" file="output_loop_detector_202605311417.xml"/>
    <inductionLoop id="306_6_bay_4_detector" lane="306_6_bay_4" pos="-8" friendlyPos="true" file="output_loop_detector_202605311417.xml"/>
    <inductionLoop id="339_6_bay_0_detector" lane="339_6_bay_0" pos="-8" friendlyPos="true" file="output_loop_detector_202605311417.xml"/>
    <inductionLoop id="339_6_bay_1_detector" lane="339_6_bay_1" pos="-8" friendlyPos="true" file="output_loop_detector_202605311417.xml"/>
    <inductionLoop id="339_6_bay_2_detector" lane="339_6_bay_2" pos="-8" friendlyPos="true" file="output_loop_detector_202605311417.xml"/>
    <inductionLoop id="339_6_bay_3_detector" lane="339_6_bay_3" pos="-8" friendlyPos="true" file="output_loop_detector_202605311417.xml"/>
    <inductionLoop id="10_7_bay_0_detector" lane="10_7_bay_0" pos="-8" friendlyPos="true" file="output_loop_detector_202605311417.xml"/>
    <inductionLoop id="10_7_bay_1_detector" lane="10_7_bay_1" pos="-8" friendlyPos="true" file="output_loop_detector_202605311417.xml"/>
    <inductionLoop id="10_7_bay_2_detector" lane="10_7_bay_2" pos="-8" friendlyPos="true" file="output_loop_detector_202605311417.xml"/>
    <inductionLoop id="10_7_bay_3_detector" lane="10_7_bay_3" pos="-8" friendlyPos="true" file="output_loop_detector_202605311417.xml"/>
    <inductionLoop id="225_7_bay_0_detector" lane="225_7_bay_0" pos="-8" friendlyPos="true" file="output_loop_detector_202605311417.xml"/>
    <inductionLoop id="225_7_bay_1_detector" lane="225_7_bay_1" pos="-8" friendlyPos="true" file="output_loop_detector_202605311417.xml"/>
    <inductionLoop id="225_7_bay_2_detector" lane="225_7_bay_2" pos="-8" friendlyPos="true" file="output_loop_detector_202605311417.xml"/>
    <inductionLoop id="225_7_bay_3_detector" lane="225_7_bay_3" pos="-8" friendlyPos="true" file="output_loop_detector_202605311417.xml"/>
    <inductionLoop id="484_7_bay_0_detector" lane="484_7_bay_0" pos="-8" friendlyPos="true" file="output_loop_detector_202605311417.xml"/>
    <inductionLoop id="484_7_bay_1_detector" lane="484_7_bay_1" pos="-8" friendlyPos="true" file="output_loop_detector_202605311417.xml"/>
    <inductionLoop id="484_7_bay_2_detector" lane="484_7_bay_2" pos="-8" friendlyPos="true" file="output_loop_detector_202605311417.xml"/>
    <inductionLoop id="326_7_0_detector" lane="326_7_0" pos="-8" friendlyPos="true" file="output_loop_detector_202605311417.xml"/>
    <inductionLoop id="326_7_1_detector" lane="326_7_1" pos="-8" friendlyPos="true" file="output_loop_detector_202605311417.xml"/>
    <inductionLoop id="326_7_2_detector" lane="326_7_2" pos="-8" friendlyPos="true" file="output_loop_detector_202605311417.xml"/>
    <inductionLoop id="329_8_0_detector" lane="329_8_0" pos="-8" friendlyPos="true" file="output_loop_detector_202605311417.xml"/>
    <inductionLoop id="329_8_1_detector" lane="329_8_1" pos="-8" friendlyPos="true" file="output_loop_detector_202605311417.xml"/>
    <inductionLoop id="329_8_2_detector" lane="329_8_2" pos="-8" friendlyPos="true" file="output_loop_detector_202605311417.xml"/>
    <inductionLoop id="329_8_3_detector" lane="329_8_3" pos="-8" friendlyPos="true" file="output_loop_detector_202605311417.xml"/>
    <inductionLoop id="329_8_4_detector" lane="329_8_4" pos="-8" friendlyPos="true" file="output_loop_detector_202605311417.xml"/>
    <inductionLoop id="314_8_bay_0_detector" lane="314_8_bay_0" pos="-8" friendlyPos="true" file="output_loop_detector_202605311417.xml"/>
    <inductionLoop id="314_8_bay_1_detector" lane="314_8_bay_1" pos="-8" friendlyPos="true" file="output_loop_detector_202605311417.xml"/>
    <inductionLoop id="314_8_bay_2_detector" lane="314_8_bay_2" pos="-8" friendlyPos="true" file="output_loop_detector_202605311417.xml"/>
    <inductionLoop id="314_8_bay_3_detector" lane="314_8_bay_3" pos="-8" friendlyPos="true" file="output_loop_detector_202605311417.xml"/>
    <inductionLoop id="314_8_bay_4_detector" lane="314_8_bay_4" pos="-8" friendlyPos="true" file="output_loop_detector_202605311417.xml"/>
    <inductionLoop id="507_8_bay_0_detector" lane="507_8_bay_0" pos="-8" friendlyPos="true" file="output_loop_detector_202605311417.xml"/>
    <inductionLoop id="507_8_bay_1_detector" lane="507_8_bay_1" pos="-8" friendlyPos="true" file="output_loop_detector_202605311417.xml"/>
    <inductionLoop id="507_8_bay_2_detector" lane="507_8_bay_2" pos="-8" friendlyPos="true" file="output_loop_detector_202605311417.xml"/>
    <inductionLoop id="507_8_bay_3_detector" lane="507_8_bay_3" pos="-8" friendlyPos="true" file="output_loop_detector_202605311417.xml"/>
    <inductionLoop id="507_8_bay_4_detector" lane="507_8_bay_4" pos="-8" friendlyPos="true" file="output_loop_detector_202605311417.xml"/>
    <inductionLoop id="320_8_bay_0_detector" lane="320_8_bay_0" pos="-8" friendlyPos="true" file="output_loop_detector_202605311417.xml"/>
    <inductionLoop id="320_8_bay_1_detector" lane="320_8_bay_1" pos="-8" friendlyPos="true" file="output_loop_detector_202605311417.xml"/>
    <inductionLoop id="320_8_bay_2_detector" lane="320_8_bay_2" pos="-8" friendlyPos="true" file="output_loop_detector_202605311417.xml"/>
    <inductionLoop id="320_8_bay_3_detector" lane="320_8_bay_3" pos="-8" friendlyPos="true" file="output_loop_detector_202605311417.xml"/>
    <inductionLoop id="349_9_bay_0_detector" lane="349_9_bay_0" pos="-8" friendlyPos="true" file="output_loop_detector_202605311417.xml"/>
    <inductionLoop id="349_9_bay_1_detector" lane="349_9_bay_1" pos="-8" friendlyPos="true" file="output_loop_detector_202605311417.xml"/>
    <inductionLoop id="349_9_bay_2_detector" lane="349_9_bay_2" pos="-8" friendlyPos="true" file="output_loop_detector_202605311417.xml"/>
    <inductionLoop id="350_9_bay_0_detector" lane="350_9_bay_0" pos="-8" friendlyPos="true" file="output_loop_detector_202605311417.xml"/>
    <inductionLoop id="350_9_bay_1_detector" lane="350_9_bay_1" pos="-8" friendlyPos="true" file="output_loop_detector_202605311417.xml"/>
    <inductionLoop id="350_9_bay_2_detector" lane="350_9_bay_2" pos="-8" friendlyPos="true" file="output_loop_detector_202605311417.xml"/>
    <inductionLoop id="319_9_bay_0_detector" lane="319_9_bay_0" pos="-8" friendlyPos="true" file="output_loop_detector_202605311417.xml"/>
    <inductionLoop id="319_9_bay_1_detector" lane="319_9_bay_1" pos="-8" friendlyPos="true" file="output_loop_detector_202605311417.xml"/>
    <inductionLoop id="319_9_bay_2_detector" lane="319_9_bay_2" pos="-8" friendlyPos="true" file="output_loop_detector_202605311417.xml"/>
    <inductionLoop id="319_9_bay_3_detector" lane="319_9_bay_3" pos="-8" friendlyPos="true" file="output_loop_detector_202605311417.xml"/>
    <inductionLoop id="10_9_bay_0_detector" lane="10_9_bay_0" pos="-8" friendlyPos="true" file="output_loop_detector_202605311417.xml"/>
    <inductionLoop id="10_9_bay_1_detector" lane="10_9_bay_1" pos="-8" friendlyPos="true" file="output_loop_detector_202605311417.xml"/>
    <inductionLoop id="10_9_bay_2_detector" lane="10_9_bay_2" pos="-8" friendlyPos="true" file="output_loop_detector_202605311417.xml"/>
    <inductionLoop id="17_10_bay_0_detector" lane="17_10_bay_0" pos="-8" friendlyPos="true" file="output_loop_detector_202605311417.xml"/>
    <inductionLoop id="17_10_bay_1_detector" lane="17_10_bay_1" pos="-8" friendlyPos="true" file="output_loop_detector_202605311417.xml"/>
    <inductionLoop id="17_10_bay_2_detector" lane="17_10_bay_2" pos="-8" friendlyPos="true" file="output_loop_detector_202605311417.xml"/>
    <inductionLoop id="17_10_bay_3_detector" lane="17_10_bay_3" pos="-8" friendlyPos="true" file="output_loop_detector_202605311417.xml"/>
    <inductionLoop id="17_10_bay_4_detector" lane="17_10_bay_4" pos="-8" friendlyPos="true" file="output_loop_detector_202605311417.xml"/>
    <inductionLoop id="7_10_bay_0_detector" lane="7_10_bay_0" pos="-8" friendlyPos="true" file="output_loop_detector_202605311417.xml"/>
    <inductionLoop id="7_10_bay_1_detector" lane="7_10_bay_1" pos="-8" friendlyPos="true" file="output_loop_detector_202605311417.xml"/>
    <inductionLoop id="7_10_bay_2_detector" lane="7_10_bay_2" pos="-8" friendlyPos="true" file="output_loop_detector_202605311417.xml"/>
    <inductionLoop id="7_10_bay_3_detector" lane="7_10_bay_3" pos="-8" friendlyPos="true" file="output_loop_detector_202605311417.xml"/>
    <inductionLoop id="7_10_bay_4_detector" lane="7_10_bay_4" pos="-8" friendlyPos="true" file="output_loop_detector_202605311417.xml"/>
    <inductionLoop id="9_10_bay_0_detector" lane="9_10_bay_0" pos="-8" friendlyPos="true" file="output_loop_detector_202605311417.xml"/>
    <inductionLoop id="9_10_bay_1_detector" lane="9_10_bay_1" pos="-8" friendlyPos="true" file="output_loop_detector_202605311417.xml"/>
    <inductionLoop id="9_10_bay_2_detector" lane="9_10_bay_2" pos="-8" friendlyPos="true" file="output_loop_detector_202605311417.xml"/>
    <inductionLoop id="9_10_bay_3_detector" lane="9_10_bay_3" pos="-8" friendlyPos="true" file="output_loop_detector_202605311417.xml"/>
    <inductionLoop id="9_10_bay_4_detector" lane="9_10_bay_4" pos="-8" friendlyPos="true" file="output_loop_detector_202605311417.xml"/>
    <inductionLoop id="11_10_bay_0_detector" lane="11_10_bay_0" pos="-8" friendlyPos="true" file="output_loop_detector_202605311417.xml"/>
    <inductionLoop id="11_10_bay_1_detector" lane="11_10_bay_1" pos="-8" friendlyPos="true" file="output_loop_detector_202605311417.xml"/>
    <inductionLoop id="11_10_bay_2_detector" lane="11_10_bay_2" pos="-8" friendlyPos="true" file="output_loop_detector_202605311417.xml"/>
    <inductionLoop id="11_10_bay_3_detector" lane="11_10_bay_3" pos="-8" friendlyPos="true" file="output_loop_detector_202605311417.xml"/>
    <inductionLoop id="11_10_bay_4_detector" lane="11_10_bay_4" pos="-8" friendlyPos="true" file="output_loop_detector_202605311417.xml"/>
    <inductionLoop id="173_11_bay_0_detector" lane="173_11_bay_0" pos="-8" friendlyPos="true" file="output_loop_detector_202605311417.xml"/>
    <inductionLoop id="173_11_bay_1_detector" lane="173_11_bay_1" pos="-8" friendlyPos="true" file="output_loop_detector_202605311417.xml"/>
    <inductionLoop id="327_11_bay_0_detector" lane="327_11_bay_0" pos="-8" friendlyPos="true" file="output_loop_detector_202605311417.xml"/>
    <inductionLoop id="327_11_bay_1_detector" lane="327_11_bay_1" pos="-8" friendlyPos="true" file="output_loop_detector_202605311417.xml"/>
    <inductionLoop id="10_11_bay_0_detector" lane="10_11_bay_0" pos="-8" friendlyPos="true" file="output_loop_detector_202605311417.xml"/>
    <inductionLoop id="10_11_bay_1_detector" lane="10_11_bay_1" pos="-8" friendlyPos="true" file="output_loop_detector_202605311417.xml"/>
    <inductionLoop id="10_11_bay_2_detector" lane="10_11_bay_2" pos="-8" friendlyPos="true" file="output_loop_detector_202605311417.xml"/>
    <inductionLoop id="12_11_bay_0_detector" lane="12_11_bay_0" pos="-8" friendlyPos="true" file="output_loop_detector_202605311417.xml"/>
    <inductionLoop id="12_11_bay_1_detector" lane="12_11_bay_1" pos="-8" friendlyPos="true" file="output_loop_detector_202605311417.xml"/>
    <inductionLoop id="12_11_bay_2_detector" lane="12_11_bay_2" pos="-8" friendlyPos="true" file="output_loop_detector_202605311417.xml"/>
    <inductionLoop id="19_12_bay_0_detector" lane="19_12_bay_0" pos="-8" friendlyPos="true" file="output_loop_detector_202605311417.xml"/>
    <inductionLoop id="19_12_bay_1_detector" lane="19_12_bay_1" pos="-8" friendlyPos="true" file="output_loop_detector_202605311417.xml"/>
    <inductionLoop id="19_12_bay_2_detector" lane="19_12_bay_2" pos="-8" friendlyPos="true" file="output_loop_detector_202605311417.xml"/>
    <inductionLoop id="19_12_bay_3_detector" lane="19_12_bay_3" pos="-8" friendlyPos="true" file="output_loop_detector_202605311417.xml"/>
    <inductionLoop id="328_12_0_detector" lane="328_12_0" pos="-8" friendlyPos="true" file="output_loop_detector_202605311417.xml"/>
    <inductionLoop id="328_12_1_detector" lane="328_12_1" pos="-8" friendlyPos="true" file="output_loop_detector_202605311417.xml"/>
    <inductionLoop id="328_12_2_detector" lane="328_12_2" pos="-8" friendlyPos="true" file="output_loop_detector_202605311417.xml"/>
    <inductionLoop id="11_12_bay_0_detector" lane="11_12_bay_0" pos="-8" friendlyPos="true" file="output_loop_detector_202605311417.xml"/>
    <inductionLoop id="11_12_bay_1_detector" lane="11_12_bay_1" pos="-8" friendlyPos="true" file="output_loop_detector_202605311417.xml"/>
    <inductionLoop id="11_12_bay_2_detector" lane="11_12_bay_2" pos="-8" friendlyPos="true" file="output_loop_detector_202605311417.xml"/>
    <inductionLoop id="24_13_bay_0_detector" lane="24_13_bay_0" pos="-8" friendlyPos="true" file="output_loop_detector_202605311417.xml"/>
    <inductionLoop id="24_13_bay_1_detector" lane="24_13_bay_1" pos="-8" friendlyPos="true" file="output_loop_detector_202605311417.xml"/>
    <inductionLoop id="24_13_bay_2_detector" lane="24_13_bay_2" pos="-8" friendlyPos="true" file="output_loop_detector_202605311417.xml"/>
    <inductionLoop id="24_13_bay_3_detector" lane="24_13_bay_3" pos="-8" friendlyPos="true" file="output_loop_detector_202605311417.xml"/>
    <inductionLoop id="24_13_bay_4_detector" lane="24_13_bay_4" pos="-8" friendlyPos="true" file="output_loop_detector_202605311417.xml"/>
    <inductionLoop id="24_13_bay_5_detector" lane="24_13_bay_5" pos="-8" friendlyPos="true" file="output_loop_detector_202605311417.xml"/>
    <inductionLoop id="7002_13_bay_0_detector" lane="7002_13_bay_0" pos="-8" friendlyPos="true" file="output_loop_detector_202605311417.xml"/>
    <inductionLoop id="7002_13_bay_1_detector" lane="7002_13_bay_1" pos="-8" friendlyPos="true" file="output_loop_detector_202605311417.xml"/>
    <inductionLoop id="7002_13_bay_2_detector" lane="7002_13_bay_2" pos="-8" friendlyPos="true" file="output_loop_detector_202605311417.xml"/>
    <inductionLoop id="7002_13_bay_3_detector" lane="7002_13_bay_3" pos="-8" friendlyPos="true" file="output_loop_detector_202605311417.xml"/>
    <inductionLoop id="7002_13_bay_4_detector" lane="7002_13_bay_4" pos="-8" friendlyPos="true" file="output_loop_detector_202605311417.xml"/>
    <inductionLoop id="7002_13_bay_5_detector" lane="7002_13_bay_5" pos="-8" friendlyPos="true" file="output_loop_detector_202605311417.xml"/>
    <inductionLoop id="7001_13_bay_0_detector" lane="7001_13_bay_0" pos="-8" friendlyPos="true" file="output_loop_detector_202605311417.xml"/>
    <inductionLoop id="7001_13_bay_1_detector" lane="7001_13_bay_1" pos="-8" friendlyPos="true" file="output_loop_detector_202605311417.xml"/>
    <inductionLoop id="7001_13_bay_2_detector" lane="7001_13_bay_2" pos="-8" friendlyPos="true" file="output_loop_detector_202605311417.xml"/>
    <inductionLoop id="7001_13_bay_3_detector" lane="7001_13_bay_3" pos="-8" friendlyPos="true" file="output_loop_detector_202605311417.xml"/>
    <inductionLoop id="7001_13_bay_4_detector" lane="7001_13_bay_4" pos="-8" friendlyPos="true" file="output_loop_detector_202605311417.xml"/>
    <inductionLoop id="486_13_bay_0_detector" lane="486_13_bay_0" pos="-8" friendlyPos="true" file="output_loop_detector_202605311417.xml"/>
    <inductionLoop id="486_13_bay_1_detector" lane="486_13_bay_1" pos="-8" friendlyPos="true" file="output_loop_detector_202605311417.xml"/>
    <inductionLoop id="486_13_bay_2_detector" lane="486_13_bay_2" pos="-8" friendlyPos="true" file="output_loop_detector_202605311417.xml"/>
    <inductionLoop id="486_13_bay_3_detector" lane="486_13_bay_3" pos="-8" friendlyPos="true" file="output_loop_detector_202605311417.xml"/>
    <inductionLoop id="486_13_bay_4_detector" lane="486_13_bay_4" pos="-8" friendlyPos="true" file="output_loop_detector_202605311417.xml"/>
    <inductionLoop id="5230_14_bay_0_detector" lane="5230_14_bay_0" pos="-8" friendlyPos="true" file="output_loop_detector_202605311417.xml"/>
    <inductionLoop id="5230_14_bay_1_detector" lane="5230_14_bay_1" pos="-8" friendlyPos="true" file="output_loop_detector_202605311417.xml"/>
    <inductionLoop id="7003_14_0_detector" lane="7003_14_0" pos="-8" friendlyPos="true" file="output_loop_detector_202605311417.xml"/>
    <inductionLoop id="7003_14_1_detector" lane="7003_14_1" pos="-8" friendlyPos="true" file="output_loop_detector_202605311417.xml"/>
    <inductionLoop id="7003_14_2_detector" lane="7003_14_2" pos="-8" friendlyPos="true" file="output_loop_detector_202605311417.xml"/>
    <inductionLoop id="486_14_bay_0_detector" lane="486_14_bay_0" pos="-8" friendlyPos="true" file="output_loop_detector_202605311417.xml"/>
    <inductionLoop id="486_14_bay_1_detector" lane="486_14_bay_1" pos="-8" friendlyPos="true" file="output_loop_detector_202605311417.xml"/>
    <inductionLoop id="486_14_bay_2_detector" lane="486_14_bay_2" pos="-8" friendlyPos="true" file="output_loop_detector_202605311417.xml"/>
    <inductionLoop id="486_14_bay_3_detector" lane="486_14_bay_3" pos="-8" friendlyPos="true" file="output_loop_detector_202605311417.xml"/>
    <inductionLoop id="247_14_bay_0_detector" lane="247_14_bay_0" pos="-8" friendlyPos="true" file="output_loop_detector_202605311417.xml"/>
    <inductionLoop id="247_14_bay_1_detector" lane="247_14_bay_1" pos="-8" friendlyPos="true" file="output_loop_detector_202605311417.xml"/>
    <inductionLoop id="247_14_bay_2_detector" lane="247_14_bay_2" pos="-8" friendlyPos="true" file="output_loop_detector_202605311417.xml"/>
    <inductionLoop id="509_16_bay_0_detector" lane="509_16_bay_0" pos="-8" friendlyPos="true" file="output_loop_detector_202605311417.xml"/>
    <inductionLoop id="509_16_bay_1_detector" lane="509_16_bay_1" pos="-8" friendlyPos="true" file="output_loop_detector_202605311417.xml"/>
    <inductionLoop id="509_16_bay_2_detector" lane="509_16_bay_2" pos="-8" friendlyPos="true" file="output_loop_detector_202605311417.xml"/>
    <inductionLoop id="509_16_bay_3_detector" lane="509_16_bay_3" pos="-8" friendlyPos="true" file="output_loop_detector_202605311417.xml"/>
    <inductionLoop id="143_16_1_detector" lane="143_16_1" pos="-8" friendlyPos="true" file="output_loop_detector_202605311417.xml"/>
    <inductionLoop id="143_16_2_detector" lane="143_16_2" pos="-8" friendlyPos="true" file="output_loop_detector_202605311417.xml"/>
    <inductionLoop id="143_16_3_detector" lane="143_16_3" pos="-8" friendlyPos="true" file="output_loop_detector_202605311417.xml"/>
    <inductionLoop id="7203_16_0_detector" lane="7203_16_0" pos="-8" friendlyPos="true" file="output_loop_detector_202605311417.xml"/>
    <inductionLoop id="5204_16_0_detector" lane="5204_16_0" pos="-8" friendlyPos="true" file="output_loop_detector_202605311417.xml"/>
    <inductionLoop id="5204_16_1_detector" lane="5204_16_1" pos="-8" friendlyPos="true" file="output_loop_detector_202605311417.xml"/>
    <inductionLoop id="5204_16_2_detector" lane="5204_16_2" pos="-8" friendlyPos="true" file="output_loop_detector_202605311417.xml"/>
    <inductionLoop id="5204_16_3_detector" lane="5204_16_3" pos="-8" friendlyPos="true" file="output_loop_detector_202605311417.xml"/>
    <inductionLoop id="224_17_bay_0_detector" lane="224_17_bay_0" pos="-8" friendlyPos="true" file="output_loop_detector_202605311417.xml"/>
    <inductionLoop id="224_17_bay_1_detector" lane="224_17_bay_1" pos="-8" friendlyPos="true" file="output_loop_detector_202605311417.xml"/>
    <inductionLoop id="224_17_bay_2_detector" lane="224_17_bay_2" pos="-8" friendlyPos="true" file="output_loop_detector_202605311417.xml"/>
    <inductionLoop id="224_17_bay_3_detector" lane="224_17_bay_3" pos="-8" friendlyPos="true" file="output_loop_detector_202605311417.xml"/>
    <inductionLoop id="224_17_bay_4_detector" lane="224_17_bay_4" pos="-8" friendlyPos="true" file="output_loop_detector_202605311417.xml"/>
    <inductionLoop id="224_17_bay_5_detector" lane="224_17_bay_5" pos="-8" friendlyPos="true" file="output_loop_detector_202605311417.xml"/>
    <inductionLoop id="10_17_bay_0_detector" lane="10_17_bay_0" pos="-8" friendlyPos="true" file="output_loop_detector_202605311417.xml"/>
    <inductionLoop id="10_17_bay_1_detector" lane="10_17_bay_1" pos="-8" friendlyPos="true" file="output_loop_detector_202605311417.xml"/>
    <inductionLoop id="10_17_bay_2_detector" lane="10_17_bay_2" pos="-8" friendlyPos="true" file="output_loop_detector_202605311417.xml"/>
    <inductionLoop id="10_17_bay_3_detector" lane="10_17_bay_3" pos="-8" friendlyPos="true" file="output_loop_detector_202605311417.xml"/>
    <inductionLoop id="10_17_bay_4_detector" lane="10_17_bay_4" pos="-8" friendlyPos="true" file="output_loop_detector_202605311417.xml"/>
    <inductionLoop id="10_17_bay_5_detector" lane="10_17_bay_5" pos="-8" friendlyPos="true" file="output_loop_detector_202605311417.xml"/>
    <inductionLoop id="317_17_bay_0_detector" lane="317_17_bay_0" pos="-8" friendlyPos="true" file="output_loop_detector_202605311417.xml"/>
    <inductionLoop id="317_17_bay_1_detector" lane="317_17_bay_1" pos="-8" friendlyPos="true" file="output_loop_detector_202605311417.xml"/>
    <inductionLoop id="317_17_bay_2_detector" lane="317_17_bay_2" pos="-8" friendlyPos="true" file="output_loop_detector_202605311417.xml"/>
    <inductionLoop id="317_17_bay_3_detector" lane="317_17_bay_3" pos="-8" friendlyPos="true" file="output_loop_detector_202605311417.xml"/>
    <inductionLoop id="496_17_bay_0_detector" lane="496_17_bay_0" pos="-8" friendlyPos="true" file="output_loop_detector_202605311417.xml"/>
    <inductionLoop id="496_17_bay_1_detector" lane="496_17_bay_1" pos="-8" friendlyPos="true" file="output_loop_detector_202605311417.xml"/>
    <inductionLoop id="496_17_bay_2_detector" lane="496_17_bay_2" pos="-8" friendlyPos="true" file="output_loop_detector_202605311417.xml"/>
    <inductionLoop id="33_18_bay_0_detector" lane="33_18_bay_0" pos="-8" friendlyPos="true" file="output_loop_detector_202605311417.xml"/>
    <inductionLoop id="33_18_bay_1_detector" lane="33_18_bay_1" pos="-8" friendlyPos="true" file="output_loop_detector_202605311417.xml"/>
    <inductionLoop id="33_18_bay_2_detector" lane="33_18_bay_2" pos="-8" friendlyPos="true" file="output_loop_detector_202605311417.xml"/>
    <inductionLoop id="33_18_bay_3_detector" lane="33_18_bay_3" pos="-8" friendlyPos="true" file="output_loop_detector_202605311417.xml"/>
    <inductionLoop id="224_18_bay_0_detector" lane="224_18_bay_0" pos="-8" friendlyPos="true" file="output_loop_detector_202605311417.xml"/>
    <inductionLoop id="224_18_bay_1_detector" lane="224_18_bay_1" pos="-8" friendlyPos="true" file="output_loop_detector_202605311417.xml"/>
    <inductionLoop id="224_18_bay_2_detector" lane="224_18_bay_2" pos="-8" friendlyPos="true" file="output_loop_detector_202605311417.xml"/>
    <inductionLoop id="224_18_bay_3_detector" lane="224_18_bay_3" pos="-8" friendlyPos="true" file="output_loop_detector_202605311417.xml"/>