<?xml version="1.0" ?>
<connections>
    <connection from="357_2" to="357_2_bay" fromLane="0" toLane="0" dir="s" pass="true" uncontrolled="true"/>
    <connection from="357_2" to="357_2_bay" fromLane="0" toLane="1" dir="s" pass="true" uncontrolled="true"/>
    <connection from="101_2" to="101_2_bay" fromLane="0" toLane="0" dir="s" pass="true" uncontrolled="true"/>
    <connection from="101_2" to="101_2_bay" fromLane="0" toLane="1" dir="s" pass="true" uncontrolled="true"/>
    <connection from="356_2" to="356_2_bay" fromLane="0" toLane="0" dir="s" pass="true" uncontrolled="true"/>
    <connection from="356_2" to="356_2_bay" fromLane="0" toLane="1" dir="s" pass="true" uncontrolled="true"/>
    <connection from="3_2" to="3_2_bay" fromLane="0" toLane="0" dir="s" pass="true" uncontrolled="true"/>
    <connection from="3_2" to="3_2_bay" fromLane="1" toLane="1" dir="s" pass="true" uncontrolled="true"/>
    <connection from="3_2" to="3_2_bay" fromLane="1" toLane="2" dir="s" pass="true" uncontrolled="true"/>
    <connection from="225_3" to="225_3_bay" fromLane="0" toLane="0" dir="s" pass="true" uncontrolled="true"/>
    <connection from="225_3" to="225_3_bay" fromLane="1" toLane="1" dir="s" pass="true" uncontrolled="true"/>
    <connection from="225_3" to="225_3_bay" fromLane="2" toLane="2" dir="s" pass="true" uncontrolled="true"/>
    <connection from="225_3" to="225_3_bay" fromLane="2" toLane="3" dir="s" pass="true" uncontrolled="true"/>
    <connection from="225_3" to="225_3_bay" fromLane="2" toLane="4" dir="s" pass="true" uncontrolled="true"/>
    <connection from="351_3" to="351_3_bay" fromLane="0" toLane="0" dir="s" pass="true" uncontrolled="true"/>
    <connection from="351_3" to="351_3_bay" fromLane="1" toLane="1" dir="s" pass="true" uncontrolled="true"/>
    <connection from="351_3" to="351_3_bay" fromLane="2" toLane="2" dir="s" pass="true" uncontrolled="true"/>
    <connection from="351_3" to="351_3_bay" fromLane="2" toLane="3" dir="s" pass="true" uncontrolled="true"/>
    <connection from="351_3" to="351_3_bay" fromLane="2" toLane="4" dir="s" pass="true" uncontrolled="true"/>
    <connection from="2_3" to="2_3_bay" fromLane="0" toLane="0" dir="s" pass="true" uncontrolled="true"/>
    <connection from="2_3" to="2_3_bay" fromLane="1" toLane="1" dir="s" pass="true" uncontrolled="true"/>
    <connection from="2_3" to="2_3_bay" fromLane="1" toLane="2" dir="s" pass="true" uncontrolled="true"/>
    <connection from="352_3" to="352_3_bay" fromLane="0" toLane="0" dir="s" pass="true" uncontrolled="true"/>
    <connection from="352_3" to="352_3_bay" fromLane="1" toLane="1" dir="s" pass="true" uncontrolled="true"/>
    <connection from="352_3" to="352_3_bay" fromLane="1" toLane="2" dir="s" pass="true" uncontrolled="true"/>
    <connection from="503_5" to="503_5_bay" fromLane="0" toLane="0" dir="s" pass="true" uncontrolled="true"/>
    <connection from="503_5" to="503_5_bay" fromLane="0" toLane="1" dir="s" pass="true" uncontrolled="true"/>
    <connection from="503_5" to="503_5_bay" fromLane="1" toLane="2" dir="s" pass="true" uncontrolled="true"/>
    <connection from="503_5" to="503_5_bay" fromLane="2" toLane="3" dir="s" pass="true" uncontrolled="true"/>
    <connection from="503_5" to="503_5_bay" fromLane="2" toLane="4" dir="s" pass="true" uncontrolled="true"/>
    <connection from="312_5" to="312_5_bay" fromLane="0" toLane="0" dir="s" pass="true" uncontrolled="true"/>
    <connection from="312_5" to="312_5_bay" fromLane="0" toLane="1" dir="s" pass="true" uncontrolled="true"/>
    <connection from="312_5" to="312_5_bay" fromLane="1" toLane="2" dir="s" pass="true" uncontrolled="true"/>
    <connection from="312_5" to="312_5_bay" fromLane="2" toLane="3" dir="s" pass="true" uncontrolled="true"/>
    <connection from="312_5" to="312_5_bay" fromLane="2" toLane="4" dir="s" pass="true" uncontrolled="true"/>
    <connection from="284_5" to="284_5_bay" fromLane="0" toLane="0" dir="s" pass="true" uncontrolled="true"/>
    <connection from="284_5" to="284_5_bay" fromLane="1" toLane="1" dir="s" pass="true" uncontrolled="true"/>
    <connection from="284_5" to="284_5_bay" fromLane="1" toLane="2" dir="s" pass="true" uncontrolled="true"/>
    <connection from="313_5" to="313_5_bay" fromLane="0" toLane="0" dir="s" pass="true" uncontrolled="true"/>
    <connection from="313_5" to="313_5_bay" fromLane="0" toLane="1" dir="s" pass="true" uncontrolled="true"/>
    <connection from="313_5" to="313_5_bay" fromLane="1" toLane="2" dir="s" pass="true" uncontrolled="true"/>
    <connection from="313_5" to="313_5_bay" fromLane="1" toLane="3" dir="s" pass="true" uncontrolled="true"/>
    <connection from="7002_6" to="7002_6_bay" fromLane="0" toLane="0" dir="s" pass="true" uncontrolled="true"/>
    <connection from="7002_6" to="7002_6_bay" fromLane="0" toLane="1" dir="s" pass="true" uncontrolled="true"/>
    <connection from="7002_6" to="7002_6_bay" fromLane="1" toLane="2" dir="s" pass="true" uncontrolled="true"/>
    <connection from="7002_6" to="7002_6_bay" fromLane="2" toLane="3" dir="s" pass="true" uncontrolled="true"/>
    <connection from="7002_6" to="7002_6_bay" fromLane="3" toLane="4" dir="s" pass="true" uncontrolled="true"/>
    <connection from="306_6" to="306_6_bay" fromLane="0" toLane="0" dir="s" pass="true" uncontrolled="true"/>
    <connection from="306_6" to="306_6_bay" fromLane="1" toLane="1" dir="s" pass="true" uncontrolled="true"/>
    <connection from="306_6" to="306_6_bay" fromLane="2" toLane="2" dir="s" pass="true" uncontrolled="true"/>
    <connection from="306_6" to="306_6_bay" fromLane="3" toLane="3" dir="s" pass="true" uncontrolled="true"/>
    <connection from="306_6" to="306_6_bay" fromLane="3" toLane="4" dir="s" pass="true" uncontrolled="true"/>
    <connection from="339_6" to="339_6_bay" fromLane="0" toLane="0" dir="s" pass="true" uncontrolled="true"/>
    <connection from="339_6" to="339_6_bay" fromLane="1" toLane="1" dir="s" pass="true" uncontrolled="true"/>
    <connection from="339_6" to="339_6_bay" fromLane="2" toLane="2" dir="s" pass="true" uncontrolled="true"/>
    <connection from="339_6" to="339_6_bay" fromLane="2" toLane="3" dir="s" pass="true" uncontrolled="true"/>
    <connection from="10_7" to="10_7_bay" fromLane="0" toLane="0" dir="s" pass="true" uncontrolled="true"/>
    <connection from="10_7" to="10_7_bay" fromLane="1" toLane="1" dir="s" pass="true" uncontrolled="true"/>
    <connection from="10_7" to="10_7_bay" fromLane="2" toLane="2" dir="s" pass="true" uncontrolled="true"/>
    <connection from="10_7" to="10_7_bay" fromLane="2" toLane="3" dir="s" pass="true" uncontrolled="true"/>
    <connection from="225_7" to="225_7_bay" fromLane="0" toLane="0" dir="s" pass="true" uncontrolled="true"/>
    <connection from="225_7" to="225_7_bay" fromLane="1" toLane="1" dir="s" pass="true" uncontrolled="true"/>
    <connection from="225_7" to="225_7_bay" fromLane="2" toLane="2" dir="s" pass="true" uncontrolled="true"/>
    <connection from="225_7" to="225_7_bay" fromLane="2" toLane="3" dir="s" pass="true" uncontrolled="true"/>
    <connection from="484_7" to="484_7_bay" fromLane="0" toLane="0" dir="s" pass="true" uncontrolled="true"/>
    <connection from="484_7" to="484_7_bay" fromLane="0" toLane="1" dir="s" pass="true" uncontrolled="true"/>
    <connection from="484_7" to="484_7_bay" fromLane="0" toLane="2" dir="s" pass="true" uncontrolled="true"/>
    <connection from="314_8" to="314_8_bay" fromLane="0" toLane="0" dir="s" pass="true" uncontrolled="true"/>
    <connection from="314_8" to="314_8_bay" fromLane="0" toLane="1" dir="s" pass="true" uncontrolled="true"/>
    <connection from="314_8" to="314_8_bay" fromLane="1" toLane="2" dir="s" pass="true" uncontrolled="true"/>
    <connection from="314_8" to="314_8_bay" fromLane="1" toLane="3" dir="s" pass="true" uncontrolled="true"/>
    <connection from="314_8" to="314_8_bay" fromLane="1" toLane="4" dir="s" pass="true" uncontrolled="true"/>
    <connection from="507_8" to="507_8_bay" fromLane="0" toLane="0" dir="s" pass="true" uncontrolled="true"/>
    <connection from="507_8" to="507_8_bay" fromLane="0" toLane="1" dir="s" pass="true" uncontrolled="true"/>
    <connection from="507_8" to="507_8_bay" fromLane="1" toLane="2" dir="s" pass="true" uncontrolled="true"/>
    <connection from="507_8" to="507_8_bay" fromLane="1" toLane="3" dir="s" pass="true" uncontrolled="true"/>
    <connection from="507_8" to="507_8_bay" fromLane="1" toLane="4" dir="s" pass="true" uncontrolled="true"/>
    <connection from="320_8" to="320_8_bay" fromLane="0" toLane="0" dir="s" pass="true" uncontrolled="true"/>
    <connection from="320_8" to="320_8_bay" fromLane="1" toLane="1" dir="s" pass="true" uncontrolled="true"/>
    <connection from="320_8" to="320_8_bay" fromLane="1" toLane="2" dir="s" pass="true" uncontrolled="true"/>
    <connection from="320_8" to="320_8_bay" fromLane="1" toLane="3" dir="s" pass="true" uncontrolled="true"/>
    <connection from="349_9" to="349_9_bay" fromLane="0" toLane="0" dir="s" pass="true" uncontrolled="true"/>
    <connection from="349_9" to="349_9_bay" fromLane="1" toLane="1" dir="s" pass="true" uncontrolled="true"/>
    <connection from="349_9" to="349_9_bay" fromLane="1" toLane="2" dir="s" pass="true" uncontrolled="true"/>
    <connection from="350_9" to="350_9_bay" fromLane="0" toLane="0" dir="s" pass="true" uncontrolled="true"/>
    <connection from="350_9" to="350_9_bay" fromLane="0" toLane="1" dir="s" pass="true" uncontrolled="true"/>
    <connection from="350_9" to="350_9_bay" fromLane="0" toLane="2" dir="s" pass="true" uncontrolled="true"/>
    <connection from="319_9" to="319_9_bay" fromLane="0" toLane="0" dir="s" pass="true" uncontrolled="true"/>
    <connection from="319_9" to="319_9_bay" fromLane="1" toLane="1" dir="s" pass="true" uncontrolled="true"/>
    <connection from="319_9" to="319_9_bay" fromLane="1" toLane="2" dir="s" pass="true" uncontrolled="true"/>
    <connection from="319_9" to="319_9_bay" fromLane="1" toLane="3" dir="s" pass="true" uncontrolled="true"/>
    <connection from="10_9" to="10_9_bay" fromLane="0" toLane="0" dir="s" pass="true" uncontrolled="true"/>
    <connection from="10_9" to="10_9_bay" fromLane="1" toLane="1" dir="s" pass="true" uncontrolled="true"/>
    <connection from="10_9" to="10_9_bay" fromLane="1" toLane="2" dir="s" pass="true" uncontrolled="true"/>
    <connection from="17_10" to="17_10_bay" fromLane="0" toLane="0" dir="s" pass="true" uncontrolled="true"/>
    <connection from="17_10" to="17_10_bay" fromLane="1" toLane="1" dir="s" pass="true" uncontrolled="true"/>
    <connection from="17_10" to="17_10_bay" fromLane="2" toLane="2" dir="s" pass="true" uncontrolled="true"/>
    <connection from="17_10" to="17_10_bay" fromLane="2" toLane="3" dir="s" pass="true" uncontrolled="true"/>
    <connection from="17_10" to="17_10_bay" fromLane="2" toLane="4" dir="s" pass="true" uncontrolled="true"/>
    <connection from="7_10" to="7_10_bay" fromLane="0" toLane="0" dir="s" pass="true" uncontrolled="true"/>
    <connection from="7_10" to="7_10_bay" fromLane="1" toLane="1" dir="s" pass="true" uncontrolled="true"/>
    <connection from="7_10" to="7_10_bay" fromLane="2" toLane="2" dir="s" pass="true" uncontrolled="true"/>
    <connection from="7_10" to="7_10_bay" fromLane="2" toLane="3" dir="s" pass="true" uncontrolled="true"/>
    <connection from="7_10" to="7_10_bay" fromLane="2" toLane="4" dir="s" pass="true" uncontrolled="true"/>
    <connection from="9_10" to="9_10_bay" fromLane="0" toLane="0" dir="s" pass="true" uncontrolled="true"/>
    <connection from="9_10" to="9_10_bay" fromLane="0" toLane="1" dir="s" pass="true" uncontrolled="true"/>
    <connection from="9_10" to="9_10_bay" fromLane="1" toLane="2" dir="s" pass="true" uncontrolled="true"/>
    <connection from="9_10" to="9_10_bay" fromLane="1" toLane="3" dir="s" pass="true" uncontrolled="true"/>
    <connection from="9_10" to="9_10_bay" fromLane="1" toLane="4" dir="s" pass="true" uncontrolled="true"/>
    <connection from="11_10" to="11_10_bay" fromLane="0" toLane="0" dir="s" pass="true" uncontrolled="true"/>
    <connection from="11_10" to="11_10_bay" fromLane="0" toLane="1" dir="s" pass="true" uncontrolled="true"/>
    <connection from="11_10" to="11_10_bay" fromLane="1" toLane="2" dir="s" pass="true" uncontrolled="true"/>
    <connection from="11_10" to="11_10_bay" fromLane="1" toLane="3" dir="s" pass="true" uncontrolled="true"/>
    <connection from="11_10" to="11_10_bay" fromLane="1" toLane="4" dir="s" pass="true" uncontrolled="true"/>
    <connection from="173_11" to="173_11_bay" fromLane="0" toLane="0" dir="s" pass="true" uncontrolled="true"/>
    <connection from="173_11" to="173_11_bay" fromLane="0" toLane="1" dir="s" pass="true" uncontrolled="true"/>
    <connection from="327_11" to="327_11_bay" fromLane="0" toLane="0" dir="s" pass="true" uncontrolled="true"/>
    <connection from="327_11" to="327_11_bay" fromLane="0" toLane="1" dir="s" pass="true" uncontrolled="true"/>
    <connection from="10_11" to="10_11_bay" fromLane="0" toLane="0" dir="s" pass="true" uncontrolled="true"/>
    <connection from="10_11" to="10_11_bay" fromLane="1" toLane="1" dir="s" pass="true" uncontrolled="true"/>
    <connection from="10_11" to="10_11_bay" fromLane="1" toLane="2" dir="s" pass="true" uncontrolled="true"/>
    <connection from="12_11" to="12_11_bay" fromLane="0" toLane="0" dir="s" pass="true" uncontrolled="true"/>
    <connection from="12_11" to="12_11_bay" fromLane="1" toLane="1" dir="s" pass="true" uncontrolled="true"/>
    <connection from="12_11" to="12_11_bay" fromLane="1" toLane="2" dir="s" pass="true" uncontrolled="true"/>
    <connection from="19_12" to="19_12_bay" fromLane="0" toLane="0" dir="s" pass="true" uncontrolled="true"/>
    <connection from="19_12" to="19_12_bay" fromLane="1" toLane="1" dir="s" pass="true" uncontrolled="true"/>
    <connection from="19_12" to="19_12_bay" fromLane="2" toLane="2" dir="s" pass="true" uncontrolled="true"/>
    <connection from="19_12" to="19_12_bay" fromLane="2" toLane="3" dir="s" pass="true" uncontrolled="true"/>
    <connection from="11_12" to="11_12_bay" fromLane="0" toLane="0" dir="s" pass="true" uncontrolled="true"/>
    <connection from="11_12" to="11_12_bay" fromLane="1" toLane="1" dir="s" pass="true" uncontrolled="true"/>
    <connection from="11_12" to="11_12_bay" fromLane="1" toLane="2" dir="s" pass="true" uncontrolled="true"/>
    <connection from="24_13" to="24_13_bay" fromLane="0" toLane="0" dir="s" pass="true" uncontrolled="true"/>
    <connection from="24_13" to="24_13_bay" fromLane="0" toLane="1" dir="s" pass="true" uncontrolled="true"/>
    <connection from="24_13" to="24_13_bay" fromLane="1" toLane="2" dir="s" pass="true" uncontrolled="true"/>
    <connection from="24_13" to="24_13_bay" fromLane="2" toLane="3" dir="s" pass="true" uncontrolled="true"/>
    <connection from="24_13" to="24_13_bay" fromLane="2" toLane="4" dir="s" pass="true" uncontrolled="true"/>
    <connection from="24_13" to="24_13_bay" fromLane="2" toLane="5" dir="s" pass="true" uncontrolled="true"/>
    <connection from="7002_13" to="7002_13_bay" fromLane="0" toLane="0" dir="s" pass="true" uncontrolled="true"/>
    <connection from="7002_13" to="7002_13_bay" fromLane="0" toLane="1" dir="s" pass="true" uncontrolled="true"/>
    <connection from="7002_13" to="7002_13_bay" fromLane="1" toLane="2" dir="s" pass="true" uncontrolled="true"/>
    <connection from="7002_13" to="7002_13_bay" fromLane="2" toLane="3" dir="s" pass="true" uncontrolled="true"/>
    <connection from="7002_13" to="7002_13_bay" fromLane="2" toLane="4" dir="s" pass="true" uncontrolled="true"/>
    <connection from="7002_13" to="7002_13_bay" fromLane="2" toLane="5" dir="s" pass="true" uncontrolled="true"/>
    <connection from="7001_13" to="7001_13_bay" fromLane="0" toLane="0" dir="s" pass="true" uncontrolled="true"/>
    <connection from="7001_13" to="7001_13_bay" fromLane="0" toLane="1" dir="s" pass="true" uncontrolled="true"/>
    <connection from="7001_13" to="7001_13_bay" fromLane="1" toLane="2" dir="s" pass="true" uncontrolled="true"/>
    <connection from="7001_13" to="7001_13_bay" fromLane="1" toLane="3" dir="s" pass="true" uncontrolled="true"/>
    <connection from="7001_13" to="7001_13_bay" fromLane="1" toLane="4" dir="s" pass="true" uncontrolled="true"/>
    <connection from="486_13" to="486_13_bay" fromLane="0" toLane="0" dir="s" pass="true" uncontrolled="true"/>
    <connection from="486_13" to="486_13_bay" fromLane="0" toLane="1" dir="s" pass="true" uncontrolled="true"/>
    <connection from="486_13" to="486_13_bay" fromLane="1" toLane="2" dir="s" pass="true" uncontrolled="true"/>
    <connection from="486_13" to="486_13_bay" fromLane="1" toLane="3" dir="s" pass="true" uncontrolled="true"/>
    <connection from="486_13" to="486_13_bay" fromLane="1" toLane="4" dir="s" pass="true" uncontrolled="true"/>
    <connection from="5230_14" to="5230_14_bay" fromLane="0" toLane="0" dir="s" pass="true" uncontrolled="true"/>
    <connection from="5230_14" to="5230_14_bay" fromLane="0" toLane="1" dir="s" pass="true" uncontrolled="true"/>
    <connection from="486_14" to="486_14_bay" fromLane="0" toLane="0" dir="s" pass="true" uncontrolled="true"/>
    <connection from="486_14" to="486_14_bay" fromLane="0" toLane="1" dir="s" pass="true" uncontrolled="true"/>
    <connection from="486_14" to="486_14_bay" fromLane="1" toLane="2" dir="s" pass="true" uncontrolled="true"/>
    <connection from="486_14" to="486_14_bay" fromLane="1" toLane="3" dir="s" pass="true" uncontrolled="true"/>
    <connection from="247_14" to="247_14_bay" fromLane="0" toLane="0" dir="s" pass="true" uncontrolled="true"/>
    <connection from="247_14" to="247_14_bay" fromLane="1" toLane="1" dir="s" pass="true" uncontrolled="true"/>
    <connection from="247_14" to="247_14_bay" fromLane="1" toLane="2" dir="s" pass="true" uncontrolled="true"/>
    <connection from="509_16" to="509_16_bay" fromLane="0" toLane="0" dir="s" pass="true" uncontrolled="true"/>
    <connection from="509_16" to="509_16_bay" fromLane="0" toLane="1" dir="s" pass="true" uncontrolled="true"/>
    <connection from="509_16" to="509_16_bay" fromLane="1" toLane="2" dir="s" pass="true" uncontrolled="true"/>
    <connection from="509_16" to="509_16_bay" fromLane="1" toLane="3" dir="s" pass="true" uncontrolled="true"/>
    <connection from="224_17" to="224_17_bay" fromLane="0" toLane="0" dir="s" pass="true" uncontrolled="true"/>
    <connection from="224_17" to="224_17_bay" fromLane="0" toLane="1" dir="s" pass="true" uncontrolled="true"/>
    <connection from="224_17" to="224_17_bay" fromLane="1" toLane="2" dir="s" pass="true" uncontrolled="true"/>
    <connection from="224_17" to="224_17_bay" fromLane="2" toLane="3" dir="s" pass="true" uncontrolled="true"/>
    <connection from="224_17" to="224_17_bay" fromLane="2" toLane="4" dir="s" pass="true" uncontrolled="true"/>
    <connection from="224_17" to="224_17_bay" fromLane="2" toLane="5" dir="s" pass="true" uncontrolled="true"/>
    <connection from="10_17" to="10_17_bay" fromLane="0" toLane="0" dir="s" pass="true" uncontrolled="true"/>
    <connection from="10_17" to="10_17_bay" fromLane="0" toLane="1" dir="s" pass="true" uncontrolled="true"/>
    <connection from="10_17" to="10_17_bay" fromLane="1" toLane="2" dir="s" pass="true" uncontrolled="true"/>
    <connection from="10_17" to="10_17_bay" fromLane="2" toLane="3" dir="s" pass="true" uncontrolled="true"/>
    <connection from="10_17" to="10_17_bay" fromLane="2" toLane="4" dir="s" pass="true" uncontrolled="true"/>
    <connection from="10_17" to="10_17_bay" fromLane="2" toLane="5" dir="s" pass="true" uncontrolled="true"/>
    <connection from="317_17" to="317_17_bay" fromLane="0" toLane="0" dir="s" pass="true" uncontrolled="true"/>
    <connection from="317_17" to="317_17_bay" fromLane="0" toLane="1" dir="s" pass="true" uncontrolled="true"/>
    <connection from="317_17" to="317_17_bay" fromLane="1" toLane="2" dir="s" pass="true" uncontrolled="true"/>
    <connection from="317_17" to="317_17_bay" fromLane="1" toLane="3" dir="s" pass="true" uncontrolled="true"/>
    <connection from="496_17" to="496_17_bay" fromLane="0" toLane="0" dir="s" pass="true" uncontrolled="true"/>
    <connection from="496_17" to="496_17_bay" fromLane="1" toLane="1" dir="s" pass="true" uncontrolled="true"/>
    <connection from="496_17" to="496_17_bay" fromLane="1" toLane="2" dir="s" pass="true" uncontrolled="true"/>
    <connection from="33_18" to="33_18_bay" fromLane="0" toLane="0" dir="s" pass="true" uncontrolled="true"/>
    <connection from="33_18" to="33_18_bay" fromLane="1" toLane="1" dir="s" pass="true" uncontrolled="true"/>
    <connection from="33_18" to="33_18_bay" fromLane="2" toLane="2" dir="s" pass="true" uncontrolled="true"/>
    <connection from="33_18" to="33_18_bay" fromLane="2" toLane="3" dir="s" pass="true" uncontrolled="true"/>
    <connection from="224_18" to="224_18_bay" fromLane="0" toLane="0" dir="s" pass="true" uncontrolled="true"/>
    <connection from="224_18" to="224_18_bay" fromLane="1" toLane="1" dir="s" pass="true" uncontrolled="true"/>
    <connection from="224_18" to="224_18_bay" fromLane="2" toLane="2" dir="s" pass="true" uncontrolled="true"/>
    <connection from="224_18" to="224_18_bay" fromLane="3" toLane="3" dir="s" pass="true" uncontrolled="true"/>
    <connection from="224_18" to="224_18_bay" fromLane="3" toLane="4" dir="s" pass="true" uncontrolled="true"/>
    <connection from="21_18" to="21_18_bay" fromLane="0" toLane="0" dir="s" pass="true" uncontrolled="true"/>
    <connection from="21_18" to="21_18_bay" fromLane="0" toLane="1" dir="s" pass="true" uncontrolled="true"/>
    <connection from="21_18" to="21_18_bay" fromLane="1" toLane="2" dir="s" pass="true" uncontrolled="true"/>
    <connection from="21_18" to="21_18_bay" fromLane="1" toLane="3" dir="s" pass="true" uncontrolled="true"/>
    <connection from="21_18" to="21_18_bay" fromLane="1" toLane="4" dir="s" pass="true" uncontrolled="true"/>
    <connection from="5213_18" to="5213_18_bay" fromLane="0" toLane="0" dir="s" pass="true" uncontrolled="true"/>
    <connection from="5213_18" to="5213_18_bay" fromLane="0" toLane="1" dir="s" pass="true" uncontrolled="true"/>
    <connection from="5213_18" to="5213_18_bay" fromLane="1" toLane="2" dir="s" pass="true" uncontrolled="true"/>
    <connection from="5213_18" to="5213_18_bay" fromLane="1" toLane="3" dir="s" pass="true" uncontrolled="true"/>
    <connection from="5213_18" to="5213_18_bay" fromLane="1" toLane="4" dir="s" pass="true" uncontrolled="true"/>
    <connection from="42_19" to="42_19_bay" fromLane="0" toLane="0" dir="s" pass="true" uncontrolled="true"/>
    <connection from="42_19" to="42_19_bay" fromLane="1" toLane="1" dir="s" pass="true" uncontrolled="true"/>
    <connection from="42_19" to="42_19_bay" fromLane="1" toLane="2" dir="s" pass="true" uncontrolled="true"/>
    <connection from="12_19" to="12_19_bay" fromLane="0" toLane="0" dir="s" pass="true" uncontrolled="true"/>
    <connection from="12_19" to="12_19_bay" fromLane="0" toLane="1" dir="s" pass="true" uncontrolled="true"/>
    <connection from="12_19" to="12_19_bay" fromLane="1" toLane="2" dir="s" pass="true" uncontrolled="true"/>
    <connection from="12_19" to="12_19_bay" fromLane="2" toLane="3" dir="s" pass="true" uncontrolled="true"/>
    <connection from="393_19" to="393_19_bay" fromLane="0" toLane="0" dir="s" pass="true" uncontrolled="true"/>
    <connection from="393_19" to="393_19_bay" fromLane="1" toLane="1" dir="s" pass="true" uncontrolled="true"/>
    <connection from="393_19" to="393_19_bay" fromLane="1" toLane="2" dir="s" pass="true" uncontrolled="true"/>
    <connection from="393_19" to="393_19_bay" fromLane="1" toLane="3" dir="s" pass="true" uncontrolled="true"/>
    <connection from="51_20" to="51_20_bay" fromLane="0" toLane="0" dir="s" pass="true" uncontrolled="true"/>
    <connection from="51_20" to="51_20_bay" fromLane="1" toLane="1" dir="s" pass="true" uncontrolled="true"/>
    <connection from="51_20" to="51_20_bay" fromLane="1" toLane="2" dir="s" pass="true" uncontrolled="true"/>
    <connection from="42_20" to="42_20_bay" fromLane="0" toLane="0" dir="s" pass="true" uncontrolled="true"/>
    <connection from="42_20" to="42_20_bay" fromLane="1" toLane="1" dir="s" pass="true" uncontrolled="true"/>
    <connection from="42_20" to="42_20_bay" fromLane="2" toLane="2" dir="s" pass="true" uncontrolled="true"/>
    <connection from="42_20" to="42_20_bay" fromLane="2" toLane="3" dir="s" pass="true" uncontrolled="true"/>
    <connection from="42_20" to="42_20_bay" fromLane="2" toLane="4" dir="s" pass="true" uncontrolled="true"/>
    <connection from="249_20" to="249_20_bay" fromLane="0" toLane="0" dir="s" pass="true" uncontrolled="true"/>
    <connection from="249_20" to="249_20_bay" fromLane="0" toLane="1" dir="s" pass="true" uncontrolled="true"/>
    <connection from="249_20" to="249_20_bay" fromLane="1" toLane="2" dir="s" pass="true" uncontrolled="true"/>
    <connection from="249_20" to="249_20_bay" fromLane="1" toLane="3" dir="s" pass="true" uncontrolled="true"/>
    <connection from="249_20" to="249_20_bay" fromLane="1" toLane="4" dir="s" pass="true" uncontrolled="true"/>
    <connection from="37_20" to="37_20_bay" fromLane="0" toLane="0" dir="s" pass="true" uncontrolled="true"/>
    <connection from="37_20" to="37_20_bay" fromLane="0" toLane="1" dir="s" pass="true" uncontrolled="true"/>
    <connection from="37_20" to="37_20_bay" fromLane="1" toLane="2" dir="s" pass="true" uncontrolled="true"/>
    <connection from="37_20" to="37_20_bay" fromLane="1" toLane="3" dir="s" pass="true" uncontrolled="true"/>
    <connection from="37_20" to="37_20_bay" fromLane="1" toLane="4" dir="s" pass="true" uncontrolled="true"/>
    <connection from="48_21" to="48_21_bay" fromLane="0" toLane="0" dir="s" pass="true" uncontrolled="true"/>
    <connection from="48_21" to="48_21_bay" fromLane="1" toLane="1" dir="s" pass="true" uncontrolled="true"/>
    <connection from="48_21" to="48_21_bay" fromLane="1" toLane="2" dir="s" pass="true" uncontrolled="true"/>
    <connection from="7005_21" to="7005_21_bay" fromLane="0" toLane="0" dir="s" pass="true" uncontrolled="true"/>
    <connection from="7005_21" to="7005_21_bay" fromLane="1" toLane="1" dir="s" pass="true" uncontrolled="true"/>
    <connection from="7005_21" to="7005_21_bay" fromLane="1" toLane="2" dir="s" pass="true" uncontrolled="true"/>
    <connection from="7005_21" to="7005_21_bay" fromLane="1" toLane="3" dir="s" pass="true" uncontrolled="true"/>
    <connection from="59_21" to="59_21_bay" fromLane="0" toLane="0" dir="s" pass="true" uncontrolled="true"/>
    <connection from="59_21" to="59_21_bay" fromLane="0" toLane="1" dir="s" pass="true" uncontrolled="true"/>
    <connection from="59_21" to="59_21_bay" fromLane="1" toLane="2" dir="s" pass="true" uncontrolled="true"/>
    <connection from="59_21" to="59_21_bay" fromLane="1" toLane="3" dir="s" pass="true" uncontrolled="true"/>
    <connection from="59_21" to="59_21_bay" fromLane="1" toLane="4" dir="s" pass="true" uncontrolled="true"/>
    <connection from="18_21" to="18_21_bay" fromLane="0" toLane="0" dir="s" pass="true" uncontrolled="true"/>
    <connection from="18_21" to="18_21_bay" fromLane="0" toLane="1" dir="s" pass="true" uncontrolled="true"/>
    <connection from="18_21" to="18_21_bay" fromLane="1" toLane="2" dir="s" pass="true" uncontrolled="true"/>
    <connection from="18_21" to="18_21_bay" fromLane="1" toLane="3" dir="s" pass="true" uncontrolled="true"/>
    <connection from="18_21" to="18_21_bay" fromLane="1" toLane="4" dir="s" pass="true" uncontrolled="true"/>
    <connection from="7009_22" to="7009_22_bay" fromLane="0" toLane="0" dir="s" pass="true" uncontrolled="true"/>
    <connection from="7009_22" to="7009_22_bay" fromLane="0" toLane="1" dir="s" pass="true" uncontrolled="true"/>
    <connection from="7009_22" to="7009_22_bay" fromLane="1" toLane="2" dir="s" pass="true" uncontrolled="true"/>
    <connection from="7009_22" to="7009_22_bay" fromLane="1" toLane="3" dir="s" pass="true" uncontrolled="true"/>
    <connection from="7009_22" to="7009_22_bay" fromLane="1" toLane="4" dir="s" pass="true" uncontrolled="true"/>
    <connection from="5206_23" to="5206_23_bay" fromLane="0" toLane="0" dir="s" pass="true" uncontrolled="true"/>
    <connection from="5206_23" to="5206_23_bay" fromLane="0" toLane="1" dir="s" pass="true" uncontrolled="true"/>
    <connection from="509_23" to="509_23_bay" fromLane="0" toLane="0" dir="s" pass="true" uncontrolled="true"/>
    <connection from="509_23" to="509_23_bay" fromLane="0" toLane="1" dir="s" pass="true" uncontrolled="true"/>
    <connection from="509_23" to="509_23_bay" fromLane="0" toLane="2" dir="s" pass="true" uncontrolled="true"/>
    <connection from="27_23" to="27_23_bay" fromLane="0" toLane="0" dir="s" pass="true" uncontrolled="true"/>
    <connection from="27_23" to="27_23_bay" fromLane="0" toLane="1" dir="s" pass="true" uncontrolled="true"/>
    <connection from="27_23" to="27_23_bay" fromLane="0" toLane="2" dir="s" pass="true" uncontrolled="true"/>
    <connection from="36_24" to="36_24_bay" fromLane="0" toLane="0" dir="s" pass="true" uncontrolled="true"/>
    <connection from="36_24" to="36_24_bay" fromLane="1" toLane="1" dir="s" pass="true" uncontrolled="true"/>
    <connection from="36_24" to="36_24_bay" fromLane="2" toLane="2" dir="s" pass="true" uncontrolled="true"/>
    <connection from="36_24" to="36_24_bay" fromLane="2" toLane="3" dir="s" pass="true" uncontrolled="true"/>
    <connection from="13_24" to="13_24_bay" fromLane="0" toLane="0" dir="s" pass="true" uncontrolled="true"/>
    <connection from="13_24" to="13_24_bay" fromLane="1" toLane="1" dir="s" pass="true" uncontrolled="true"/>
    <connection from="13_24" to="13_24_bay" fromLane="2" toLane="2" dir="s" pass="true" uncontrolled="true"/>