<?xml version="1.0" ?>
<routes>
    <vType id="car" type="passenger"/>
    <route id="network_route_0" edges="145_191 145_191_bay 191_188 191_188_bay 188_186 188_186_bay 186_184 186_184_bay 184_183 184_183_bay 183_181 181_180 181_180_bay 180_160 180_160_bay 160_159 160_159_bay 159_157 159_157_bay 157_156 157_156_bay 156_250 156_250_bay 250_258"/>
    <flow id="network_flow_0" route="network_route_0" number="1" type="car" departLane="best" departSpeed="max" departPos="random_free" begin="27000" end="37800"/>
    <route id="network_route_1" edges="145_191 145_191_bay 191_188 191_188_bay 188_186 188_186_bay 186_184 186_184_bay 184_183 184_183_bay 183_181 181_180 181_180_bay 180_160 180_160_bay 160_159 160_159_bay 159_157 159_157_bay 157_156 157_156_bay 156_250 156_250_bay 250_510"/>
    <flow id="network_flow_1" route="network_route_1" number="32" type="car" departLane="best" departSpeed="max" departPos="random_free" begin="27000" end="37800"/>
    <route id="network_route_2" edges="145_191 145_191_bay 191_188 191_188_bay 188_186 188_186_bay 186_184 186_184_bay 184_183 184_183_bay 183_181 181_180 181_180_bay 180_160 180_160_bay 160_159 160_159_bay 159_157 159_157_bay 157_156 157_156_bay 156_501"/>
    <flow id="network_flow_2" route="network_route_2" number="27" type="car" departLane="best" departSpeed="max" departPos="random_free" begin="27000" end="37800"/>
    <route id="network_route_3" edges="145_191 145_191_bay 191_188 191_188_bay 188_186 188_186_bay 186_184 186_184_bay 184_183 184_183_bay 183_181 181_180 181_180_bay 180_160 180_160_bay 160_159 160_159_bay 159_157 159_157_bay 157_252 157_252_bay 252_374"/>
    <flow id="network_flow_3" route="network_route_3" number="9" type="car" departLane="best" departSpeed="max" departPos="random_free" begin="27000" end="37800"/>
    <route id="network_route_4" edges="145_191 145_191_bay 191_188 191_188_bay 188_186 188_186_bay 186_184 186_184_bay 184_183 184_183_bay 183_181 181_180 181_180_bay 180_160 180_160_bay 160_159 160_159_bay 159_157 159_157_bay 157_348"/>
    <flow id="network_flow_4" route="network_route_4" number="1" type="car" departLane="best" departSpeed="max" departPos="random_free" begin="27000" end="37800"/>
    <route id="network_route_5" edges="145_191 145_191_bay 191_188 191_188_bay 188_186 188_186_bay 186_184 186_184_bay 184_183 184_183_bay 183_181 181_180 181_180_bay 180_160 180_160_bay 160_162 160_162_bay 162_7046 7046_5269 5269_341 341_7045"/>
    <flow id="network_flow_5" route="network_route_5" number="200" type="car" departLane="best" departSpeed="max" departPos="random_free" begin="27000" end="37800"/>
    <route id="network_route_6" edges="145_191 145_191_bay 191_188 191_188_bay 188_186 188_186_bay 186_184 186_184_bay 184_183 184_183_bay 183_181 181_180 181_180_bay 180_178 180_178_bay 178_287"/>
    <flow id="network_flow_6" route="network_route_6" number="234" type="car" departLane="best" departSpeed="max" departPos="random_free" begin="27000" end="37800"/>
    <route id="network_route_7" edges="145_191 145_191_bay 191_188 191_188_bay 188_186 188_186_bay 186_184 186_184_bay 184_183 184_183_bay 183_181 181_180 181_180_bay 180_178 180_178_bay 178_518 518_286 286_5210 5210_419 419_159 419_159_bay 159_157 159_157_bay 157_156 157_156_bay 156_250 156_250_bay 250_355 250_355_bay 355_32"/>
    <flow id="network_flow_7" route="network_route_7" number="15" type="car" departLane="best" departSpeed="max" departPos="random_free" begin="27000" end="37800"/>
    <route id="network_route_8" edges="145_191 145_191_bay 191_188 191_188_bay 188_186 188_186_bay 186_184 186_184_bay 184_183 184_183_bay 183_181 181_180 181_180_bay 180_178 180_178_bay 178_518 518_286 286_5210 5210_419 419_159 419_159_bay 159_160 159_160_bay 160_414"/>
    <flow id="network_flow_8" route="network_route_8" number="4" type="car" departLane="best" departSpeed="max" departPos="random_free" begin="27000" end="37800"/>
    <route id="network_route_9" edges="145_191 145_191_bay 191_188 191_188_bay 188_186 188_186_bay 186_184 186_184_bay 184_183 184_183_bay 183_181 181_180 181_180_bay 180_196 180_196_bay 196_161 161_171 171_406 406_204 406_204_bay 204_203 204_203_bay 203_401 401_402 402_179"/>
    <flow id="network_flow_9" route="network_route_9" number="25" type="car" departLane="best" departSpeed="max" departPos="random_free" begin="27000" end="37800"/>
    <route id="network_route_10" edges="145_191 145_191_bay 191_188 191_188_bay 188_186 188_186_bay 186_184 186_184_bay 184_183 184_183_bay 183_181 181_180 181_180_bay 180_196 180_196_bay 196_161 161_171 171_406 406_204 406_204_bay 204_221 204_221_bay 221_187"/>
    <flow id="network_flow_10" route="network_route_10" number="13" type="car" departLane="best" departSpeed="max" departPos="random_free" begin="27000" end="37800"/>
    <route id="network_route_11" edges="145_191 145_191_bay 191_188 191_188_bay 188_186 188_186_bay 186_184 186_184_bay 184_183 184_183_bay 183_181 181_180 181_180_bay 180_196 180_196_bay 196_161 161_171 171_406 406_204 406_204_bay 204_221 204_221_bay 221_226 221_226_bay 226_425"/>
    <flow id="network_flow_11" route="network_route_11" number="20" type="car" departLane="best" departSpeed="max" departPos="random_free" begin="27000" end="37800"/>
    <route id="network_route_12" edges="145_191 145_191_bay 191_188 191_188_bay 188_186 188_186_bay 186_184 186_184_bay 184_183 184_183_bay 183_181 181_180 181_180_bay 180_196 180_196_bay 196_161 161_171 171_406 406_204 406_204_bay 204_221 204_221_bay 221_545"/>
    <flow id="network_flow_12" route="network_route_12" number="47" type="car" departLane="best" departSpeed="max" departPos="random_free" begin="27000" end="37800"/>
    <route id="network_route_13" edges="145_191 145_191_bay 191_188 191_188_bay 188_186 188_186_bay 186_184 186_184_bay 184_183 184_183_bay 183_181 181_180 181_180_bay 180_196 180_196_bay 196_208 196_208_bay 208_206 208_206_bay 206_482 482_231 482_231_bay 231_232 231_232_bay 232_269"/>
    <flow id="network_flow_13" route="network_route_13" number="19" type="car" departLane="best" departSpeed="max" departPos="random_free" begin="27000" end="37800"/>
    <route id="network_route_14" edges="145_191 145_191_bay 191_188 191_188_bay 188_186 188_186_bay 186_184 186_184_bay 184_183 184_183_bay 183_181 181_180 181_180_bay 180_196 180_196_bay 196_208 196_208_bay 208_232 208_232_bay 232_236 232_236_bay 236_240 236_240_bay 240_262"/>
    <flow id="network_flow_14" route="network_route_14" number="27" type="car" departLane="best" departSpeed="max" departPos="random_free" begin="27000" end="37800"/>
    <route id="network_route_15" edges="145_191 145_191_bay 191_188 191_188_bay 188_186 188_186_bay 186_184 186_184_bay 184_183 184_183_bay 183_181 181_207"/>
    <flow id="network_flow_15" route="network_route_15" number="40" type="car" departLane="best" departSpeed="max" departPos="random_free" begin="27000" end="37800"/>
    <route id="network_route_16" edges="145_191 145_191_bay 191_188 191_188_bay 188_186 188_186_bay 186_409 409_177 409_177_bay 177_175 177_175_bay 175_290 290_293 293_168 293_168_bay 168_5262 5262_344 344_7031"/>
    <flow id="network_flow_16" route="network_route_16" number="106" type="car" departLane="best" departSpeed="max" departPos="random_free" begin="27000" end="37800"/>
    <route id="network_route_17" edges="145_191 145_191_bay 191_391 391_373 373_413"/>
    <flow id="network_flow_17" route="network_route_17" number="240" type="car" departLane="best" departSpeed="max" departPos="random_free" begin="27000" end="37800"/>
    <route id="network_route_18" edges="145_191 145_191_bay 191_411 411_4 4_378"/>
    <flow id="network_flow_18" route="network_route_18" number="458" type="car" departLane="best" departSpeed="max" departPos="random_free" begin="27000" end="37800"/>
    <route id="network_route_19" edges="146_150 146_150_bay 150_147 150_147_bay 147_5264 5264_342 342_142 142_5263 5263_127 5263_127_bay 127_113 127_113_bay 113_112 113_112_bay 112_5265 5265_125 125_127 125_127_bay 127_5263 5263_142 142_342 342_7038"/>
    <flow id="network_flow_19" route="network_route_19" number="19" type="car" departLane="best" departSpeed="max" departPos="random_free" begin="27000" end="37800"/>
    <route id="network_route_20" edges="146_150 146_150_bay 150_147 150_147_bay 147_5264 5264_342 342_142 142_5263 5263_127 5263_127_bay 127_125 127_125_bay 125_124 125_124_bay 124_123 124_123_bay 123_122 123_122_bay 122_7268"/>
    <flow id="network_flow_20" route="network_route_20" number="38" type="car" departLane="best" departSpeed="max" departPos="random_free" begin="27000" end="37800"/>
    <route id="network_route_21" edges="146_150 146_150_bay 150_147 150_147_bay 147_5264 5264_342 342_142 142_5263 5263_127 5263_127_bay 127_125 127_125_bay 125_124 125_124_bay 124_139 124_139_bay 139_5268 5268_141 141_341 341_7045"/>
    <flow id="network_flow_21" route="network_route_21" number="13" type="car" departLane="best" departSpeed="max" departPos="random_free" begin="27000" end="37800"/>
    <route id="network_route_22" edges="146_150 146_150_bay 150_147 150_147_bay 147_5264 5264_342 342_142 142_5263 5263_127 5263_127_bay 127_125 127_125_bay 125_124 125_124_bay 124_139 124_139_bay 139_5268 5268_141 141_7048"/>
    <flow id="network_flow_22" route="network_route_22" number="26" type="car" departLane="best" departSpeed="max" departPos="random_free" begin="27000" end="37800"/>
    <route id="network_route_23" edges="146_150 146_150_bay 150_147 150_147_bay 147_5264 5264_342 342_142 142_7041"/>
    <flow id="network_flow_23" route="network_route_23" number="47" type="car" departLane="best" departSpeed="max" departPos="random_free" begin="27000" end="37800"/>
    <route id="network_route_24" edges="146_150 146_150_bay 150_165 150_165_bay 165_166 165_166_bay 166_168 166_168_bay 168_5262 5262_344 344_144 144_5261 5261_130 5261_130_bay 130_116 116_115 116_115_bay 115_114 115_114_bay 114_99 114_99_bay 99_525 99_525_bay 525_66 66_51 66_51_bay 51_53 51_53_bay 53_5272 5272_5214 5214_55 55_5279 5279_7275"/>
    <flow id="network_flow_24" route="network_route_24" number="23" type="car" departLane="best" departSpeed="max" departPos="random_free" begin="27000" end="37800"/>
    <route id="network_route_25" edges="146_150 146_150_bay 150_281"/>
    <flow id="network_flow_25" route="network_route_25" number="21" type="car" departLane="best" departSpeed="max" departPos="random_free" begin="27000" end="37800"/>
    <route id="network_route_26" edges="148_244 244_240 244_240_bay 240_236 240_236_bay 236_232 236_232_bay 232_231 232_231_bay 231_229 231_229_bay 229_228 229_228_bay 228_746 228_746_bay 746_279"/>
    <flow id="network_flow_26" route="network_route_26" number="78" type="car" departLane="best" departSpeed="max" departPos="random_free" begin="27000" end="37800"/>
    <route id="network_route_27" edges="148_244 244_338 338_245 245_445 445_321 321_288"/>
    <flow id="network_flow_27" route="network_route_27" number="99" type="car" departLane="best" departSpeed="max" departPos="random_free" begin="27000" end="37800"/>
    <route id="network_route_28" edges="164_188 164_188_bay 188_186 188_186_bay 186_409 409_177 409_177_bay 177_175 177_175_bay 175_290 290_293 293_168 293_168_bay 168_5262 5262_344 344_7031"/>
    <flow id="network_flow_28" route="network_route_28" number="40" type="car" departLane="best" departSpeed="max" departPos="random_free" begin="27000" end="37800"/>
    <route id="network_route_29" edges="164_188 164_188_bay 188_191 188_191_bay 191_411 411_4 4_378"/>
    <flow id="network_flow_29" route="network_route_29" number="40" type="car" departLane="best" departSpeed="max" departPos="random_free" begin="27000" end="37800"/>
    <route id="network_route_30" edges="164_188 164_188_bay 188_214"/>
    <flow id="network_flow_30" route="network_route_30" number="10" type="car" departLane="best" departSpeed="max" departPos="random_free" begin="27000" end="37800"/>
    <route id="network_route_31" edges="169_340 169_340_bay 340_140 140_5274 5274_5275 5275_120 5275_120_bay 120_5243 5243_105 5243_105_bay 105_109 105_109_bay 109_104 109_104_bay 104_7057"/>
    <flow id="network_flow_31" route="network_route_31" number="6" type="car" departLane="best" departSpeed="max" departPos="random_free" begin="27000" end="37800"/>
    <route id="network_route_32" edges="169_340 169_340_bay 340_251 340_251_bay 251_7053 7053_252 7053_252_bay 252_294 294_156 294_156_bay 156_250 156_250_bay 250_355 250_355_bay 355_155 155_154 154_153 154_153_bay 153_259"/>
    <flow id="network_flow_32" route="network_route_32" number="1" type="car" departLane="best" departSpeed="max" departPos="random_free" begin="27000" end="37800"/>
    <route id="network_route_33" edges="169_340 169_340_bay 340_7295"/>
    <flow id="network_flow_33" route="network_route_33" number="3" type="car" departLane="best" departSpeed="max" departPos="random_free" begin="27000" end="37800"/>
    <route id="network_route_34" edges="176_166 166_168 166_168_bay 168_5262 5262_344 344_144 144_5261 5261_130 5261_130_bay 130_116 116_115 116_115_bay 115_114 115_114_bay 114_99 114_99_bay 99_525 99_525_bay 525_66 66_51 66_51_bay 51_20 51_20_bay 20_42 20_42_bay 42_19 42_19_bay 19_12 19_12_bay 12_328"/>
    <flow id="network_flow_34" route="network_route_34" number="72" type="car" departLane="best" departSpeed="max" departPos="random_free" begin="27000" end="37800"/>
    <route id="network_route_35" edges="176_166 166_200"/>
    <flow id="network_flow_35" route="network_route_35" number="120" type="car" departLane="best" departSpeed="max" departPos="random_free" begin="27000" end="37800"/>
    <route id="network_route_36" edges="182_170 170_168 170_168_bay 168_5262 5262_344 344_144 144_5261 5261_130 5261_130_bay 130_116 116_115 116_115_bay 115_114 115_114_bay 114_99 114_99_bay 99_525 99_525_bay 525_66 66_51 66_51_bay 51_20 51_20_bay 20_42 20_42_bay 42_19 42_19_bay 19_12 19_12_bay 12_328"/>
    <flow id="network_flow_36" route="network_route_36" number="2" type="car" departLane="best" departSpeed="max" departPos="random_free" begin="27000" end="37800"/>
    <route id="network_route_37" edges="182_170 170_168 170_168_bay 168_5262 5262_344 344_144 144_5261 5261_130 5261_130_bay 130_116 116_115 116_115_bay 115_114 115_114_bay 114_99 114_99_bay 99_525 99_525_bay 525_66 66_51 66_51_bay 51_53 51_53_bay 53_5272 5272_5214 5214_55 55_5279 5279_7275"/>
    <flow id="network_flow_37" route="network_route_37" number="48" type="car" departLane="best" departSpeed="max" departPos="random_free" begin="27000" end="37800"/>
    <route id="network_route_38" edges="182_170 170_192"/>
    <flow id="network_flow_38" route="network_route_38" number="10" type="car" departLane="best" departSpeed="max" departPos="random_free" begin="27000" end="37800"/>
    <route id="network_route_39" edges="182_170 170_415 415_172 172_372 372_308 308_133 133_136 136_137 137_335 137_335_bay 335_5284 5284_7262"/>
    <flow id="network_flow_39" route="network_route_39" number="50" type="car" departLane="best" departSpeed="max" departPos="random_free" begin="27000" end="37800"/>
    <route id="network_route_40" edges="185_175 175_242"/>
    <flow id="network_flow_40" route="network_route_40" number="27" type="car" departLane="best" departSpeed="max" departPos="random_free" begin="27000" end="37800"/>
    <route id="network_route_41" edges="185_175 175_290 290_293 293_168 293_168_bay 168_5262 5262_344 344_144 144_5261 5261_130 5261_130_bay 130_116 116_115 116_115_bay 115_114 115_114_bay 114_99 114_99_bay 99_102 99_102_bay 102_103 102_103_bay 103_303 303_79"/>
    <flow id="network_flow_41" route="network_route_41" number="71" type="car" departLane="best" departSpeed="max" departPos="random_free" begin="27000" end="37800"/>
    <route id="network_route_42" edges="187_221 187_221_bay 221_204 221_204_bay 204_205 204_205_bay 205_206 205_206_bay 206_208 206_208_bay 208_196 208_196_bay 196_309"/>
    <flow id="network_flow_42" route="network_route_42" number="21" type="car" departLane="best" departSpeed="max" departPos="random_free" begin="27000" end="37800"/>
    <route id="network_route_43" edges="187_221 187_221_bay 221_204 221_204_bay 204_406 406_171 406_171_bay 171_161 161_196 161_196_bay 196_180 196_180_bay 180_160 180_160_bay 160_162 160_162_bay 162_7046 7046_5269 5269_341 341_141 141_7048"/>
    <flow id="network_flow_43" route="network_route_43" number="15" type="car" departLane="best" departSpeed="max" departPos="random_free" begin="27000" end="37800"/>
    <route id="network_route_44" edges="187_221 187_221_bay 221_204 221_204_bay 204_406 406_171 406_171_bay 171_161 161_196 161_196_bay 196_180 196_180_bay 180_160 180_160_bay 160_162 160_162_bay 162_7046 7046_5269 5269_341 341_7045"/>
    <flow id="network_flow_44" route="network_route_44" number="6" type="car" departLane="best" departSpeed="max" departPos="random_free" begin="27000" end="37800"/>
    <route id="network_route_45" edges="187_221 187_221_bay 221_545"/>
    <flow id="network_flow_45" route="network_route_45" number="6" type="car" departLane="best" departSpeed="max" departPos="random_free" begin="27000" end="37800"/>
    <route id="network_route_46" edges="189_490 490_402 490_402_bay 402_179"/>
    <flow id="network_flow_46" route="network_route_46" number="1" type="car" departLane="best" departSpeed="max" departPos="random_free" begin="27000" end="37800"/>
    <route id="network_route_47" edges="189_490 490_402 490_402_bay 402_202 202_403 403_81"/>
    <flow id="network_flow_47" route="network_route_47" number="65" type="car" departLane="best" departSpeed="max" departPos="random_free" begin="27000" end="37800"/>
    <route id="network_route_48" edges="189_490 490_402 490_402_bay 402_401 401_203 401_203_bay 203_204 203_204_bay 204_205 204_205_bay 205_206 205_206_bay 206_482 482_231 482_231_bay 231_229 231_229_bay 229_228 229_228_bay 228_273"/>
    <flow id="network_flow_48" route="network_route_48" number="29" type="car" departLane="best" departSpeed="max" departPos="random_free" begin="27000" end="37800"/>
    <route id="network_route_49" edges="189_490 490_402 490_402_bay 402_401 401_203 401_203_bay 203_204 203_204_bay 204_406 406_171 406_171_bay 171_161 161_196 161_196_bay 196_180 196_180_bay 180_160 180_160_bay 160_162 160_162_bay 162_7046 7046_5269 5269_341 341_141 141_7048"/>
    <flow id="network_flow_49" route="network_route_49" number="75" type="car" departLane="best" departSpeed="max" departPos="random_free" begin="27000" end="37800"/>
    <route id="network_route_50" edges="190_206 190_206_bay 206_205 206_205_bay 205_204 205_204_bay 204_406 406_171 406_171_bay 171_161 161_196 161_196_bay 196_180 196_180_bay 180_160 180_160_bay 160_162 160_162_bay 162_7046 7046_5269 5269_341 341_141 141_7048"/>
    <flow id="network_flow_50" route="network_route_50" number="29" type="car" departLane="best" departSpeed="max" departPos="random_free" begin="27000" end="37800"/>
    <route id="network_route_51" edges="190_206 190_206_bay 206_208 206_208_bay 208_209 209_210 209_210_bay 210_213 210_213_bay 213_215 213_215_bay 215_422 422_240 422_240_bay 240_262"/>
    <flow id="network_flow_51" route="network_route_51" number="43" type="car" departLane="best" departSpeed="max" departPos="random_free" begin="27000" end="37800"/>
    <route id="network_route_52" edges="192_170 170_168 170_168_bay 168_5262 5262_344 344_144 144_5261 5261_130 5261_130_bay 130_116 116_115 116_115_bay 115_114 115_114_bay 114_99 114_99_bay 99_525 99_525_bay 525_66 66_51 66_51_bay 51_53 51_53_bay 53_5272 5272_5214 5214_55 55_5279 5279_7275"/>
    <flow id="network_flow_52" route="network_route_52" number="50" type="car" departLane="best" departSpeed="max" departPos="random_free" begin="27000" end="37800"/>
    <route id="network_route_53" edges="192_170 170_182"/>
    <flow id="network_flow_53" route="network_route_53" number="10" type="car" departLane="best" departSpeed="max" departPos="random_free" begin="27000" end="37800"/>
    <route id="network_route_54" edges="192_170 170_415 415_172 172_372 372_308 308_133 133_136 136_137 137_335 137_335_bay 335_5284 5284_7262"/>
    <flow id="network_flow_54" route="network_route_54" number="50" type="car" departLane="best" departSpeed="max" departPos="random_free" begin="27000" end="37800"/>
    <route id="network_route_55" edges="194_205 205_204 205_204_bay 204_406 406_171 406_171_bay 171_161 161_196 161_196_bay 196_180 196_180_bay 180_160 180_160_bay 160_162 160_162_bay 162_7046 7046_5269 5269_341 341_7045"/>
    <flow id="network_flow_55" route="network_route_55" number="30" type="car" departLane="best" departSpeed="max" departPos="random_free" begin="27000" end="37800"/>
    <route id="network_route_56" edges="194_205 205_441"/>
    <flow id="network_flow_56" route="network_route_56" number="10" type="car" departLane="best" departSpeed="max" departPos="random_free" begin="27000" end="37800"/>
    <route id="network_route_57" edges="199_405 405_420 420_220 220_219 220_219_bay 219_241"/>
    <flow id="network_flow_57" route="network_route_57" number="244" type="car" departLane="best" departSpeed="max" departPos="random_free" begin="27000" end="37800"/>
    <route id="network_route_58" edges="199_405 405_420 420_220 220_219 220_219_bay 219_310"/>
    <flow id="network_flow_58" route="network_route_58" number="255" type="car" departLane="best" departSpeed="max" departPos="random_free" begin="27000" end="37800"/>
    <route id="network_route_59" edges="199_405 405_420 420_220 220_383 383_384"/>
    <flow id="network_flow_59" route="network_route_59" number="298" type="car" departLane="best" departSpeed="max" departPos="random_free" begin="27000" end="37800"/>
    <route id="network_route_60" edges="199_405 405_420 420_381 381_382"/>
    <flow id="network_flow_60" route="network_route_60" number="711" type="car" departLane="best" departSpeed="max" departPos="random_free" begin="27000" end="37800"/>
    <route id="network_route_61" edges="1_171 171_161 161_196 161_196_bay 196_180 196_180_bay 180_160 180_160_bay 160_159 160_159_bay 159_157 159_157_bay 157_156 157_156_bay 156_250 156_250_bay 250_355 250_355_bay 355_32"/>
    <flow id="network_flow_61" route="network_route_61" number="65" type="car" departLane="best" departSpeed="max" departPos="random_free" begin="27000" end="37800"/>
    <route id="network_route_62" edges="1_171 171_406 406_204 406_204_bay 204_203 204_203_bay 203_401 401_402 402_179"/>
    <flow id="network_flow_62" route="network_route_62" number="120" type="car" departLane="best" departSpeed="max" departPos="random_free" begin="27000" end="37800"/>
    <route id="network_route_63" edges="1_171 171_406 406_204 406_204_bay 204_205 204_205_bay 205_206 205_206_bay 206_208 206_208_bay 208_232 208_232_bay 232_269"/>
    <flow id="network_flow_63" route="network_route_63" number="52" type="car" departLane="best" departSpeed="max" departPos="random_free" begin="27000" end="37800"/>
    <route id="network_route_64" edges="200_166 166_168 166_168_bay 168_5262 5262_344 344_144 144_5261 5261_130 5261_130_bay 130_116 116_115 116_115_bay 115_114 115_114_bay 114_99 114_99_bay 99_525 99_525_bay 525_66 66_51 66_51_bay 51_20 51_20_bay 20_42 20_42_bay 42_19 42_19_bay 19_12 19_12_bay 12_328"/>
    <flow id="network_flow_64" route="network_route_64" number="33" type="car" departLane="best" departSpeed="max" departPos="random_free" begin="27000" end="37800"/>
    <route id="network_route_65" edges="200_166 166_176"/>
    <flow id="network_flow_65" route="network_route_65" number="25" type="car" departLane="best" departSpeed="max" departPos="random_free" begin="27000" end="37800"/>
    <route id="network_route_66" edges="207_181 207_181_bay 181_180 181_180_bay 180_160 180_160_bay 160_159 160_159_bay 159_419 419_5210 5210_286 286_518 518_178 518_178_bay 178_180 178_180_bay 180_196 180_196_bay 196_208 196_208_bay 208_206 208_206_bay 206_205 206_205_bay 205_194"/>
    <flow id="network_flow_66" route="network_route_66" number="10" type="car" departLane="best" departSpeed="max" departPos="random_free" begin="27000" end="37800"/>
    <route id="network_route_67" edges="207_181 207_181_bay 181_183 181_183_bay 183_184 183_184_bay 184_186 184_186_bay 186_409 409_177 409_177_bay 177_175 177_175_bay 175_290 290_293 293_168 293_168_bay 168_166 168_166_bay 166_176"/>
    <flow id="network_flow_67" route="network_route_67" number="10" type="car" departLane="best" departSpeed="max" departPos="random_free" begin="27000" end="37800"/>
    <route id="network_route_68" edges="211_195 211_195_bay 195_212"/>
    <flow id="network_flow_68" route="network_route_68" number="10" type="car" departLane="best" departSpeed="max" departPos="random_free" begin="27000" end="37800"/>
    <route id="network_route_69" edges="211_195 211_195_bay 195_410 410_186 410_186_bay 186_409 409_177 409_177_bay 177_175 177_175_bay 175_290 290_293 293_168 293_168_bay 168_5262 5262_344 344_7031"/>
    <flow id="network_flow_69" route="network_route_69" number="40" type="car" departLane="best" departSpeed="max" departPos="random_free" begin="27000" end="37800"/>
    <route id="network_route_70" edges="212_195 212_195_bay 195_211"/>
    <flow id="network_flow_70" route="network_route_70" number="10" type="car" departLane="best" departSpeed="max" departPos="random_free" begin="27000" end="37800"/>
    <route id="network_route_71" edges="212_195 212_195_bay 195_410 410_186 410_186_bay 186_409 409_177 409_177_bay 177_175 177_175_bay 175_290 290_293 293_168 293_168_bay 168_5262 5262_344 344_7031"/>
    <flow id="network_flow_71" route="network_route_71" number="40" type="car" departLane="best" departSpeed="max" departPos="random_free" begin="27000" end="37800"/>
    <route id="network_route_72" edges="214_188 214_188_bay 188_164"/>
    <flow id="network_flow_72" route="network_route_72" number="10" type="car" departLane="best" departSpeed="max" departPos="random_free" begin="27000" end="37800"/>
    <route id="network_route_73" edges="214_188 214_188_bay 188_186 188_186_bay 186_409 409_177 409_177_bay 177_175 177_175_bay 175_290 290_293 293_168 293_168_bay 168_5262 5262_344 344_7031"/>
    <flow id="network_flow_73" route="network_route_73" number="40" type="car" departLane="best" departSpeed="max" departPos="random_free" begin="27000" end="37800"/>
    <route id="network_route_74" edges="214_188 214_188_bay 188_191 188_191_bay 191_411 411_4 4_378"/>
    <flow id="network_flow_74" route="network_route_74" number="40" type="car" departLane="best" departSpeed="max" departPos="random_free" begin="27000" end="37800"/>
    <route id="network_route_75" edges="217_177 217_177_bay 177_175 177_175_bay 175_290 290_293 293_168 293_168_bay 168_5262 5262_344 344_144 144_5261 5261_130 5261_130_bay 130_116 116_115 116_115_bay 115_114 115_114_bay 114_99 114_99_bay 99_102 99_102_bay 102_103 102_103_bay 103_5291 5291_7260"/>
    <flow id="network_flow_75" route="network_route_75" number="9" type="car" departLane="best" departSpeed="max" departPos="random_free" begin="27000" end="37800"/>
    <route id="network_route_76" edges="217_177 217_177_bay 177_175 177_175_bay 175_290 290_293 293_168 293_168_bay 168_5262 5262_344 344_144 144_5261 5261_130 5261_130_bay 130_116 116_115 116_115_bay 115_114 115_114_bay 114_99 114_99_bay 99_525 99_525_bay 525_526 526_7238"/>
    <flow id="network_flow_76" route="network_route_76" number="15" type="car" departLane="best" departSpeed="max" departPos="random_free" begin="27000" end="37800"/>
    <route id="network_route_77" edges="217_177 217_177_bay 177_175 177_175_bay 175_290 290_293 293_168 293_168_bay 168_5262 5262_344 344_144 144_5261 5261_130 5261_130_bay 130_116 116_115 116_115_bay 115_114 115_114_bay 114_99 114_99_bay 99_525 99_525_bay 525_66 66_7222"/>
    <flow id="network_flow_77" route="network_route_77" number="2" type="car" departLane="best" departSpeed="max" departPos="random_free" begin="27000" end="37800"/>
    <route id="network_route_78" edges="217_177 217_177_bay 177_175 177_175_bay 175_290 290_293 293_168 293_168_bay 168_5262 5262_344 344_144 144_5261 5261_130 5261_130_bay 130_116 116_115 116_115_bay 115_114 115_114_bay 114_99 114_99_bay 99_525 99_525_bay 525_66 66_7223"/>
    <flow id="network_flow_78" route="network_route_78" number="7" type="car" departLane="best" departSpeed="max" departPos="random_free" begin="27000" end="37800"/>
    <route id="network_route_79" edges="217_177 217_177_bay 177_175 177_175_bay 175_290 290_293 293_168 293_168_bay 168_5262 5262_344 344_144 144_5261 5261_130 5261_130_bay 130_116 116_115 116_115_bay 115_114 115_114_bay 114_99 114_99_bay 99_97 99_97_bay 97_7271"/>
    <flow id="network_flow_79" route="network_route_79" number="23" type="car" departLane="best" departSpeed="max" departPos="random_free" begin="27000" end="37800"/>
    <route id="network_route_80" edges="217_177 217_177_bay 177_218"/>
    <flow id="network_flow_80" route="network_route_80" number="14" type="car" departLane="best" departSpeed="max" departPos="random_free" begin="27000" end="37800"/>
    <route id="network_route_81" edges="217_177 217_177_bay 177_409 409_186 186_184 186_184_bay 184_183 184_183_bay 183_181 181_180 181_180_bay 180_178 180_178_bay 178_518 518_286 286_5210 5210_419 419_159 419_159_bay 159_157 159_157_bay 157_156 157_156_bay 156_250 156_250_bay 250_355 250_355_bay 355_32"/>
    <flow id="network_flow_81" route="network_route_81" number="10" type="car" departLane="best" departSpeed="max" departPos="random_free" begin="27000" end="37800"/>
    <route id="network_route_82" edges="218_177 218_177_bay 177_175 177_175_bay 175_290 290_293 293_168 293_168_bay 168_5262 5262_344 344_144 144_5261 5261_130 5261_130_bay 130_116 116_115 116_115_bay 115_114 115_114_bay 114_99 114_99_bay 99_97 99_97_bay 97_7271"/>
    <flow id="network_flow_82" route="network_route_82" number="52" type="car" departLane="best" departSpeed="max" departPos="random_free" begin="27000" end="37800"/>