<?xml version="1.0" encoding="UTF-8"?>

<!-- generated on 2025-04-23 16:14:28.136054 by randomTrips.py v1_21_0+0000-d7b3b481c43
<configuration>
    <net-file value="c:/Users/xh8/ornl_work/github_workspace/utdf2gmns/datasets/data_Tempe_network_1/utdf_to_sumo/utdf_to_sumo.net.xml"/>
    <route-file value="c:/Users/xh8/ornl_work/github_workspace/utdf2gmns/datasets/data_Tempe_network_1/utdf_to_sumo/utdf_to_sumo.rou.xml"/>
</configuration>
-->

<routes xmlns:xsi="http://www.w3.org/2001/XMLSchema-instance" xsi:noNamespaceSchemaLocation="http://sumo.dlr.de/xsd/routes_file.xsd">
    <trip id="0" depart="0.00" from="516turn49_49" to="109_478"/>
    <trip id="1" depart="1.00" from="228turn746_746" to="184turn186_186"/>
    <trip id="2" depart="2.00" from="5268_5268turn139" to="5204_5204turn29"/>
    <trip id="3" depart="3.00" from="7244_93" to="126turn130_130"/>
    <trip id="4" depart="4.00" from="341_141" to="10turn17_17"/>
    <trip id="5" depart="5.00" from="203_203turn204" to="381_382"/>
    <trip id="6" depart="6.00" from="111_111turn117" to="175_290"/>
    <trip id="7" depart="7.00" from="5201_5201turn247" to="416turn172_172"/>
    <trip id="8" depart="8.00" from="204_204turn205" to="46_46turn45"/>
    <trip id="9" depart="9.00" from="64_5288" to="103_103turn102"/>
    <trip id="10" depart="10.00" from="63_62" to="5221_5221turn530"/>
    <trip id="11" depart="11.00" from="273turn228_228" to="157_157turn252"/>
    <trip id="12" depart="12.00" from="83_84" to="231turn232_232"/>
    <trip id="13" depart="13.00" from="139_5267" to="129turn126_126"/>
    <trip id="14" depart="14.00" from="7046turn162_162" to="481turn229_229"/>
    <trip id="15" depart="15.00" from="63_63turn64" to="5241_7253"/>
    <trip id="16" depart="16.00" from="43_43turn60" to="91_548"/>
    <trip id="17" depart="17.00" from="303_5282" to="41turn43_43"/>
    <trip id="18" depart="18.00" from="7005_7005turn21" to="49turn33_33"/>
    <trip id="19" depart="19.00" from="70_5234" to="44_7209"/>
    <trip id="20" depart="20.00" from="5242_5242turn105" to="114_7258"/>
    <trip id="21" depart="21.00" from="206turn208_208" to="213_213turn210"/>
    <trip id="22" depart="22.00" from="130_116" to="18_5213"/>
    <trip id="23" depart="23.00" from="143_5203" to="208turn232_232"/>
    <trip id="24" depart="24.00" from="515_514" to="248_248turn253"/>
    <trip id="25" depart="25.00" from="29_5204" to="180_180turn178"/>
    <trip id="26" depart="26.00" from="224_224turn17" to="7_7turn10"/>
    <trip id="27" depart="27.00" from="51turn50_50" to="486turn14_14"/>
    <trip id="28" depart="28.00" from="180_180turn196" to="5241_5241turn110"/>
    <trip id="29" depart="29.00" from="177_409" to="252_7053"/>
    <trip id="30" depart="30.00" from="96_94" to="509_509turn511"/>
    <trip id="31" depart="31.00" from="458turn174_174" to="520_520turn64"/>
    <trip id="32" depart="32.00" from="7040_7040turn342" to="5275turn120_120"/>
    <trip id="33" depart="33.00" from="208_208turn196" to="110_5240"/>
    <trip id="34" depart="34.00" from="24turn13_13" to="204turn221_221"/>
    <trip id="35" depart="35.00" from="199_405" to="80turn85_85"/>
    <trip id="36" depart="36.00" from="7217_7217turn511" to="222turn236_236"/>
    <trip id="37" depart="37.00" from="5205turn29_29" to="273turn228_228"/>
    <trip id="38" depart="38.00" from="7274_5292" to="335_5250"/>
    <trip id="39" depart="39.00" from="222turn210_210" to="196turn208_208"/>
    <trip id="40" depart="40.00" from="462turn225_225" to="203_392"/>
    <trip id="41" depart="41.00" from="482_482turn206" to="7221turn50_50"/>
    <trip id="42" depart="42.00" from="31turn43_43" to="183turn184_184"/>
    <trip id="43" depart="43.00" from="99turn97_97" to="388turn121_121"/>
    <trip id="44" depart="44.00" from="137turn335_335" to="114turn99_99"/>
    <trip id="45" depart="45.00" from="14_5230" to="504_465"/>
    <trip id="46" depart="46.00" from="550_745" to="2_2turn3"/>
    <trip id="47" depart="47.00" from="124turn139_139" to="253_267"/>
    <trip id="48" depart="48.00" from="99turn102_102" to="403_81"/>
    <trip id="49" depart="49.00" from="89_89turn91" to="68_7250"/>
    <trip id="50" depart="50.00" from="106_106turn94" to="5238_5238turn70"/>
    <trip id="51" depart="51.00" from="522_523" to="40_541"/>
    <trip id="52" depart="52.00" from="224_224turn17" to="509turn16_16"/>
    <trip id="53" depart="53.00" from="150turn147_147" to="30_7216"/>
    <trip id="54" depart="54.00" from="369_249" to="85_85turn86"/>
    <trip id="55" depart="55.00" from="7216turn30_30" to="203_453"/>
    <trip id="56" depart="56.00" from="410turn195_195" to="166_166turn168"/>
    <trip id="57" depart="57.00" from="7272_7272turn96" to="7004_29"/>
    <trip id="58" depart="58.00" from="23_5206" to="509_509turn16"/>
    <trip id="59" depart="59.00" from="503turn504_504" to="156_501"/>
    <trip id="60" depart="60.00" from="5289_5290" to="410turn186_186"/>
    <trip id="61" depart="61.00" from="536turn534_534" to="405_405turn420"/>
    <trip id="62" depart="62.00" from="101_101turn2" to="227turn147_147"/>
    <trip id="63" depart="63.00" from="10_10turn11" to="75_65"/>
    <trip id="64" depart="64.00" from="7221turn50_50" to="58_535"/>
    <trip id="65" depart="65.00" from="245_338" to="118_476"/>
    <trip id="66" depart="66.00" from="7221_7221turn50" to="82turn93_93"/>
    <trip id="67" depart="67.00" from="133_136" to="359_350"/>
    <trip id="68" depart="68.00" from="126turn130_130" to="5265_5265turn125"/>
    <trip id="69" depart="69.00" from="5293_134" to="144_5261"/>
    <trip id="70" depart="70.00" from="391turn191_191" to="41_40"/>
    <trip id="71" depart="71.00" from="222turn210_210" to="7008turn37_37"/>
    <trip id="72" depart="72.00" from="342_142" to="180turn178_178"/>
    <trip id="73" depart="73.00" from="440turn216_216" to="5241_7253"/>
    <trip id="74" depart="74.00" from="194turn205_205" to="222_222turn210"/>
    <trip id="75" depart="75.00" from="99_99turn525" to="511turn29_29"/>
    <trip id="76" depart="76.00" from="355turn250_250" to="397turn138_138"/>
    <trip id="77" depart="77.00" from="156_294" to="186_186turn188"/>
    <trip id="78" depart="78.00" from="271_251" to="463turn225_225"/>
    <trip id="79" depart="79.00" from="208_208turn232" to="184_184turn183"/>
    <trip id="80" depart="80.00" from="127_5263" to="505_467"/>
    <trip id="81" depart="81.00" from="208_208turn196" to="7258turn114_114"/>
    <trip id="82" depart="82.00" from="7061_7061turn24" to="121turn122_122"/>
    <trip id="83" depart="83.00" from="20turn42_42" to="51_51turn50"/>
    <trip id="84" depart="84.00" from="200_200turn166" to="147turn150_150"/>
    <trip id="85" depart="85.00" from="74_74turn52" to="43turn60_60"/>
    <trip id="86" depart="86.00" from="38_5231" to="5280_5280turn57"/>
    <trip id="87" depart="87.00" from="63turn517_517" to="171_1"/>
    <trip id="88" depart="88.00" from="140_340" to="307_307turn503"/>
    <trip id="89" depart="89.00" from="342_5264" to="341_141"/>
    <trip id="90" depart="90.00" from="5263turn142_142" to="5201_5202"/>
    <trip id="91" depart="91.00" from="93turn94_94" to="12_12turn19"/>
    <trip id="92" depart="92.00" from="322_22" to="232turn208_208"/>
    <trip id="93" depart="93.00" from="70_5234" to="197_479"/>
    <trip id="94" depart="94.00" from="189_490" to="321turn445_445"/>
    <trip id="95" depart="95.00" from="341_141" to="209_209turn208"/>
    <trip id="96" depart="96.00" from="215turn213_213" to="747_264"/>
    <trip id="97" depart="97.00" from="35_295" to="69_5232"/>
    <trip id="98" depart="98.00" from="452_452turn117" to="115turn116_116"/>
    <trip id="99" depart="99.00" from="9_9turn10" to="5_312"/>
    <trip id="100" depart="100.00" from="88_88turn89" to="74_74turn52"/>
    <trip id="101" depart="101.00" from="7047turn341_341" to="161_171"/>
    <trip id="102" depart="102.00" from="3turn225_225" to="181_181turn183"/>
    <trip id="103" depart="103.00" from="320turn8_8" to="118turn108_108"/>
    <trip id="104" depart="104.00" from="304_304turn67" to="95_549"/>
    <trip id="105" depart="105.00" from="222turn210_210" to="5280_5215"/>
    <trip id="106" depart="106.00" from="36_36turn24" to="2_357"/>
    <trip id="107" depart="107.00" from="83turn90_90" to="99turn102_102"/>
    <trip id="108" depart="108.00" from="457_519" to="5234turn70_70"/>
    <trip id="109" depart="109.00" from="171_406" to="216_216turn219"/>
    <trip id="110" depart="110.00" from="88_88turn89" to="44turn45_45"/>
    <trip id="111" depart="111.00" from="445_254" to="525_525turn66"/>
    <trip id="112" depart="112.00" from="122turn121_121" to="45_45turn46"/>
    <trip id="113" depart="113.00" from="414_414turn160" to="65_7054"/>
    <trip id="114" depart="114.00" from="173turn11_11" to="87_87turn88"/>
    <trip id="115" depart="115.00" from="130_130turn126" to="16_5204"/>
    <trip id="116" depart="116.00" from="492_512" to="5203_143"/>
    <trip id="117" depart="117.00" from="20_20turn249" to="13_486"/>
    <trip id="118" depart="118.00" from="7242_521" to="196turn180_180"/>
    <trip id="119" depart="119.00" from="491turn202_202" to="49turn516_516"/>
    <trip id="120" depart="120.00" from="33turn18_18" to="45_45turn44"/>
    <trip id="121" depart="121.00" from="426_158" to="78turn57_57"/>
    <trip id="122" depart="122.00" from="196turn180_180" to="5233_69"/>
    <trip id="123" depart="123.00" from="20turn51_51" to="273turn228_228"/>
    <trip id="124" depart="124.00" from="521_521turn522" to="218turn177_177"/>
    <trip id="125" depart="125.00" from="24turn36_36" to="5261_5261turn144"/>
    <trip id="126" depart="126.00" from="127turn125_125" to="335_135"/>
    <trip id="127" depart="127.00" from="9_350" to="99turn114_114"/>
    <trip id="128" depart="128.00" from="128_128turn127" to="181_181turn180"/>
    <trip id="129" depart="129.00" from="222turn210_210" to="76turn64_64"/>
    <trip id="130" depart="130.00" from="7224turn37_37" to="7044turn141_141"/>
    <trip id="131" depart="131.00" from="29_29turn511" to="157turn252_252"/>
    <trip id="132" depart="132.00" from="7016turn57_57" to="5227turn74_74"/>
    <trip id="133" depart="133.00" from="504turn505_505" to="96_7298"/>
    <trip id="134" depart="134.00" from="5204turn29_29" to="103_5291"/>
    <trip id="135" depart="135.00" from="68_68turn86" to="217turn177_177"/>
    <trip id="136" depart="136.00" from="5213_5213turn18" to="8055_5215"/>
    <trip id="137" depart="137.00" from="161_196" to="138_5250"/>
    <trip id="138" depart="138.00" from="149_149turn174" to="420_381"/>
    <trip id="139" depart="139.00" from="227turn147_147" to="482_482turn231"/>
    <trip id="140" depart="140.00" from="5250_5250turn138" to="178_287"/>
    <trip id="141" depart="141.00" from="514_514turn515" to="203turn204_204"/>
    <trip id="142" depart="142.00" from="401turn203_203" to="7258turn114_114"/>
    <trip id="143" depart="143.00" from="7044turn141_141" to="128_7036"/>
    <trip id="144" depart="144.00" from="342_5264" to="208_209"/>
    <trip id="145" depart="145.00" from="102turn103_103" to="5270turn60_60"/>
    <trip id="146" depart="146.00" from="515turn516_516" to="203_203turn204"/>
    <trip id="147" depart="147.00" from="5270turn60_60" to="41_7273"/>
    <trip id="148" depart="148.00" from="348turn157_157" to="104_7057"/>
    <trip id="149" depart="149.00" from="129_129turn126" to="7053_7053turn252"/>
    <trip id="150" depart="150.00" from="7258turn114_114" to="417_417turn372"/>
    <trip id="151" depart="151.00" from="7025turn138_138" to="456turn83_83"/>
    <trip id="152" depart="152.00" from="168_5262" to="144_344"/>
    <trip id="153" depart="153.00" from="245_445" to="7225turn53_53"/>
    <trip id="154" depart="154.00" from="56_58" to="68_7250"/>
    <trip id="155" depart="155.00" from="7254_7254turn111" to="180_180turn181"/>
    <trip id="156" depart="156.00" from="215_422" to="131_131turn132"/>
    <trip id="157" depart="157.00" from="538_59" to="7053turn252_252"/>
    <trip id="158" depart="158.00" from="326_326turn7" to="4_377"/>
    <trip id="159" depart="159.00" from="171_161" to="75_75turn52"/>
    <trip id="160" depart="160.00" from="71turn91_91" to="91turn89_89"/>
    <trip id="161" depart="161.00" from="64turn63_63" to="7047turn341_341"/>
    <trip id="162" depart="162.00" from="110_5241" to="5245_5244"/>
    <trip id="163" depart="163.00" from="263turn253_253" to="75turn52_52"/>
    <trip id="164" depart="164.00" from="61_5217" to="6_6turn306"/>
    <trip id="165" depart="165.00" from="64turn63_63" to="204turn203_203"/>
    <trip id="166" depart="166.00" from="548turn91_91" to="132turn131_131"/>
    <trip id="167" depart="167.00" from="7212_44" to="67turn35_35"/>
    <trip id="168" depart="168.00" from="204turn203_203" to="53_53turn51"/>
    <trip id="169" depart="169.00" from="373_379" to="21_7005"/>
    <trip id="170" depart="170.00" from="56_5205" to="188_164"/>
    <trip id="171" depart="171.00" from="110_5239" to="172_415"/>
    <trip id="172" depart="172.00" from="25turn38_38" to="6_6turn306"/>
    <trip id="173" depart="173.00" from="87turn88_88" to="209_209turn210"/>
    <trip id="174" depart="174.00" from="517_63" to="27_512"/>
    <trip id="175" depart="175.00" from="92_92turn112" to="40_40turn41"/>
    <trip id="176" depart="176.00" from="75turn52_52" to="138_5250"/>
    <trip id="177" depart="177.00" from="89_89turn88" to="166_166turn168"/>
    <trip id="178" depart="178.00" from="86_86turn104" to="204_204turn205"/>
    <trip id="179" depart="179.00" from="14_14turn247" to="30_7215"/>
    <trip id="180" depart="180.00" from="5263turn127_127" to="222_260"/>
    <trip id="181" depart="181.00" from="502_34" to="38_5230"/>
    <trip id="182" depart="182.00" from="30_30turn27" to="44_44turn45"/>
    <trip id="183" depart="183.00" from="218turn177_177" to="5230_5230turn14"/>
    <trip id="184" depart="184.00" from="102_102turn103" to="747turn35_35"/>
    <trip id="185" depart="185.00" from="440_440turn216" to="5235_5236"/>
    <trip id="186" depart="186.00" from="5271_5292" to="51turn20_20"/>
    <trip id="187" depart="187.00" from="295_295turn35" to="121_5245"/>
    <trip id="188" depart="188.00" from="5213_5213turn249" to="229turn228_228"/>
    <trip id="189" depart="189.00" from="249turn20_20" to="63turn64_64"/>
    <trip id="190" depart="190.00" from="525_525turn524" to="219_219turn216"/>
    <trip id="191" depart="191.00" from="246_7001" to="28_7287"/>
    <trip id="192" depart="192.00" from="322_22" to="215turn216_216"/>
    <trip id="193" depart="193.00" from="159_418" to="29_7004"/>
    <trip id="194" depart="194.00" from="76_54" to="5204turn29_29"/>
    <trip id="195" depart="195.00" from="7257turn113_113" to="498_483"/>
    <trip id="196" depart="196.00" from="240_240turn244" to="418turn159_159"/>
    <trip id="197" depart="197.00" from="100_416" to="210_477"/>
    <trip id="198" depart="198.00" from="34_34turn36" to="452turn117_117"/>
    <trip id="199" depart="199.00" from="5205_5205turn29" to="340_140"/>
    <trip id="200" depart="200.00" from="359_350" to="181_181turn183"/>
    <trip id="201" depart="201.00" from="38turn25_25" to="7243turn82_82"/>
    <trip id="202" depart="202.00" from="56_58" to="162turn160_160"/>
    <trip id="203" depart="203.00" from="132_5248" to="391turn191_191"/>
    <trip id="204" depart="204.00" from="513turn512_512" to="231_482"/>
    <trip id="205" depart="205.00" from="68_7059" to="5261_5261turn130"/>
    <trip id="206" depart="206.00" from="521turn522_522" to="186_186turn188"/>
    <trip id="207" depart="207.00" from="193_197" to="109_109turn105"/>
    <trip id="208" depart="208.00" from="213_213turn210" to="34_502"/>
    <trip id="209" depart="209.00" from="7050_123" to="122_7268"/>
    <trip id="210" depart="210.00" from="335_5284" to="504turn503_503"/>
    <trip id="211" depart="211.00" from="190_190turn206" to="521_521turn522"/>
    <trip id="212" depart="212.00" from="407_197" to="196_161"/>
    <trip id="213" depart="213.00" from="5206_5206turn23" to="102turn103_103"/>
    <trip id="214" depart="214.00" from="527_527turn528" to="5270_201"/>
    <trip id="215" depart="215.00" from="148_244" to="301turn85_85"/>
    <trip id="216" depart="216.00" from="182_182turn170" to="86turn68_68"/>
    <trip id="217" depart="217.00" from="422_422turn240" to="115turn114_114"/>
    <trip id="218" depart="218.00" from="215_215turn216" to="63turn64_64"/>
    <trip id="219" depart="219.00" from="36turn24_24" to="52_52turn74"/>
    <trip id="220" depart="220.00" from="5215_5280" to="96_94"/>
    <trip id="221" depart="221.00" from="492_512" to="84_299"/>
    <trip id="222" depart="222.00" from="7243turn82_82" to="491_491turn202"/>
    <trip id="223" depart="223.00" from="5250turn335_335" to="37turn61_61"/>
    <trip id="224" depart="224.00" from="7008_7008turn37" to="418turn159_159"/>
    <trip id="225" depart="225.00" from="7252_7252turn105" to="524_7239"/>
    <trip id="226" depart="226.00" from="391_391turn191" to="201_5281"/>
    <trip id="227" depart="227.00" from="214turn188_188" to="507turn506_506"/>
    <trip id="228" depart="228.00" from="5293_134" to="39turn38_38"/>
    <trip id="229" depart="229.00" from="511_511turn28" to="206turn208_208"/>
    <trip id="230" depart="230.00" from="12_12turn11" to="210_210turn213"/>
    <trip id="231" depart="231.00" from="227_227turn147" to="225_462"/>
    <trip id="232" depart="232.00" from="441turn205_205" to="150_146"/>
    <trip id="233" depart="233.00" from="208turn196_196" to="5217_22"/>
    <trip id="234" depart="234.00" from="5243_5243turn120" to="11_327"/>
    <trip id="235" depart="235.00" from="327_327turn11" to="415_415turn172"/>
    <trip id="236" depart="236.00" from="338_338turn245" to="17_317"/>
    <trip id="237" depart="237.00" from="340_140" to="7257turn113_113"/>
    <trip id="238" depart="238.00" from="481turn229_229" to="521_520"/>
    <trip id="239" depart="239.00" from="7057turn104_104" to="5268_5268turn139"/>
    <trip id="240" depart="240.00" from="306_306turn6" to="102turn99_99"/>
    <trip id="241" depart="241.00" from="286_518" to="5262_5262turn168"/>
    <trip id="242" depart="242.00" from="7054_5288" to="85_85turn86"/>
    <trip id="243" depart="243.00" from="33turn18_18" to="525_525turn524"/>
    <trip id="244" depart="244.00" from="449_449turn224" to="481turn226_226"/>
    <trip id="245" depart="245.00" from="204_204turn205" to="183turn184_184"/>
    <trip id="246" depart="246.00" from="354_354turn231" to="10turn11_11"/>
    <trip id="247" depart="247.00" from="267turn253_253" to="5205turn29_29"/>
    <trip id="248" depart="248.00" from="323turn155_155" to="160turn162_162"/>
    <trip id="249" depart="249.00" from="383_429" to="144_344"/>
    <trip id="250" depart="250.00" from="50_50turn49" to="10_10turn11"/>
    <trip id="251" depart="251.00" from="317_317turn17" to="42turn20_20"/>
    <trip id="252" depart="252.00" from="111_111turn124" to="50_50turn49"/>
    <trip id="253" depart="253.00" from="162_7046" to="33_33turn18"/>
    <trip id="254" depart="254.00" from="120_120turn121" to="252_7053"/>
    <trip id="255" depart="255.00" from="19_19turn12" to="228turn229_229"/>
    <trip id="256" depart="256.00" from="5288_7054" to="252_7053"/>
    <trip id="257" depart="257.00" from="527turn528_528" to="58_56"/>
    <trip id="258" depart="258.00" from="216turn215_215" to="125_5265"/>
    <trip id="259" depart="259.00" from="10_10turn11" to="410turn186_186"/>
    <trip id="260" depart="260.00" from="9turn10_10" to="23turn509_509"/>
    <trip id="261" depart="261.00" from="5201_5202" to="527_292"/>
    <trip id="262" depart="262.00" from="5202_5201" to="5262_5262turn344"/>
    <trip id="263" depart="263.00" from="8055turn322_322" to="175turn177_177"/>
    <trip id="264" depart="264.00" from="10_10turn7" to="156_294"/>
    <trip id="265" depart="265.00" from="159_159turn157" to="51_51turn53"/>
    <trip id="266" depart="266.00" from="466_504" to="183_183turn193"/>
    <trip id="267" depart="267.00" from="523_523turn522" to="5269_341"/>
    <trip id="268" depart="268.00" from="17_496" to="486_486turn13"/>
    <trip id="269" depart="269.00" from="5278_134" to="138_15"/>
    <trip id="270" depart="270.00" from="69_5232" to="89_7296"/>
    <trip id="271" depart="271.00" from="149turn174_174" to="109_5240"/>
    <trip id="272" depart="272.00" from="248_423" to="5204turn29_29"/>
    <trip id="273" depart="273.00" from="84_84turn83" to="274turn162_162"/>
    <trip id="274" depart="274.00" from="5249_135" to="123turn122_122"/>
    <trip id="275" depart="275.00" from="5233turn70_70" to="503turn5_5"/>
    <trip id="276" depart="276.00" from="144_344" to="5272_5214"/>
    <trip id="277" depart="277.00" from="7051_7051turn122" to="47_47turn516"/>
    <trip id="278" depart="278.00" from="156_294" to="94_94turn96"/>
    <trip id="279" depart="279.00" from="540_40" to="23_23turn27"/>
    <trip id="280" depart="280.00" from="349_349turn9" to="24_7061"/>
    <trip id="281" depart="281.00" from="416_416turn172" to="235turn193_193"/>
    <trip id="282" depart="282.00" from="7050_123" to="549turn94_94"/>
    <trip id="283" depart="283.00" from="147_5264" to="87_87turn88"/>
    <trip id="284" depart="284.00" from="515_514" to="57_7016"/>
    <trip id="285" depart="285.00" from="5243turn120_120" to="30turn27_27"/>
    <trip id="286" depart="286.00" from="5266_5266turn125" to="89_7297"/>
    <trip id="287" depart="287.00" from="226_226turn221" to="532_533"/>
    <trip id="288" depart="288.00" from="43turn60_60" to="357_358"/>
    <trip id="289" depart="289.00" from="354_354turn231" to="5242_5242turn105"/>
    <trip id="290" depart="290.00" from="225_225turn3" to="65_65turn75"/>
    <trip id="291" depart="291.00" from="7008_7008turn37" to="126turn129_129"/>
    <trip id="292" depart="292.00" from="7225turn53_53" to="196_161"/>
    <trip id="293" depart="293.00" from="37_37turn61" to="48_48turn21"/>
    <trip id="294" depart="294.00" from="304_304turn67" to="10_10turn9"/>
    <trip id="295" depart="295.00" from="7051turn122_122" to="168_168turn170"/>
    <trip id="296" depart="296.00" from="19_19turn42" to="5290_303"/>
    <trip id="297" depart="297.00" from="273turn228_228" to="7046_7046turn162"/>
    <trip id="298" depart="298.00" from="5240_5240turn109" to="208_209"/>
    <trip id="299" depart="299.00" from="105turn109_109" to="83_456"/>
    <trip id="300" depart="300.00" from="133_136" to="5236_5235"/>
    <trip id="301" depart="301.00" from="401turn203_203" to="5264_5264turn342"/>
    <trip id="302" depart="302.00" from="5233turn70_70" to="50turn522_522"/>
    <trip id="303" depart="303.00" from="403_202" to="5288_5288turn64"/>
    <trip id="304" depart="304.00" from="139_5268" to="184_230"/>
    <trip id="305" depart="305.00" from="5234_5235" to="21turn18_18"/>
    <trip id="306" depart="306.00" from="480_480turn506" to="349turn9_9"/>
    <trip id="307" depart="307.00" from="435_435turn163" to="301turn85_85"/>
    <trip id="308" depart="308.00" from="5275_5275turn120" to="229turn231_231"/>
    <trip id="309" depart="309.00" from="5240turn110_110" to="205turn206_206"/>
    <trip id="310" depart="310.00" from="216_216turn219" to="13_7002"/>
    <trip id="311" depart="311.00" from="18_5213" to="13_486"/>
    <trip id="312" depart="312.00" from="43_43turn60" to="5266_5266turn125"/>
    <trip id="313" depart="313.00" from="186_409" to="183_181"/>
    <trip id="314" depart="314.00" from="39turn38_38" to="5239turn88_88"/>
    <trip id="315" depart="315.00" from="91_91turn117" to="401_401turn203"/>
    <trip id="316" depart="316.00" from="231_482" to="130_116"/>
    <trip id="317" depart="317.00" from="18turn33_33" to="187turn221_221"/>
    <trip id="318" depart="318.00" from="183turn184_184" to="105turn109_109"/>
    <trip id="319" depart="319.00" from="439turn216_216" to="206turn208_208"/>
    <trip id="320" depart="320.00" from="90_90turn80" to="420_381"/>
    <trip id="321" depart="321.00" from="5239_5239turn110" to="143_16"/>
    <trip id="322" depart="322.00" from="7205_7205turn23" to="361turn101_101"/>
    <trip id="323" depart="323.00" from="7213_7213turn31" to="445_321"/>
    <trip id="324" depart="324.00" from="388_325" to="317_390"/>
    <trip id="325" depart="325.00" from="186_186turn188" to="116_115"/>
    <trip id="326" depart="326.00" from="76_76turn64" to="350_359"/>
    <trip id="327" depart="327.00" from="6_7002" to="27turn28_28"/>
    <trip id="328" depart="328.00" from="128_128turn129" to="504_504turn505"/>
    <trip id="329" depart="329.00" from="121_121turn122" to="154turn155_155"/>
    <trip id="330" depart="330.00" from="463turn225_225" to="21_21turn18"/>
    <trip id="331" depart="331.00" from="99_99turn102" to="139turn124_124"/>
    <trip id="332" depart="332.00" from="5290_303" to="484turn7_7"/>
    <trip id="333" depart="333.00" from="54_54turn76" to="186_410"/>
    <trip id="334" depart="334.00" from="426_158" to="322_7010"/>
    <trip id="335" depart="335.00" from="359_358" to="68_7059"/>
    <trip id="336" depart="336.00" from="96_96turn97" to="21_7005"/>
    <trip id="337" depart="337.00" from="509turn16_16" to="487_291"/>
    <trip id="338" depart="338.00" from="526turn525_525" to="83_456"/>
    <trip id="339" depart="339.00" from="198turn195_195" to="180turn160_160"/>
    <trip id="340" depart="340.00" from="520_519" to="157turn159_159"/>
    <trip id="341" depart="341.00" from="181_181turn180" to="123_7050"/>
    <trip id="342" depart="342.00" from="102_5276" to="322_7010"/>
    <trip id="343" depart="343.00" from="490_402" to="213turn210_210"/>
    <trip id="344" depart="344.00" from="208turn196_196" to="522_523"/>
    <trip id="345" depart="345.00" from="5240turn110_110" to="329_7004"/>
    <trip id="346" depart="346.00" from="5232_5232turn36" to="747_498"/>
    <trip id="347" depart="347.00" from="548turn92_92" to="503_474"/>
    <trip id="348" depart="348.00" from="520_521" to="76turn82_82"/>
    <trip id="349" depart="349.00" from="345_345turn178" to="416turn172_172"/>
    <trip id="350" depart="350.00" from="51turn20_20" to="7268turn122_122"/>
    <trip id="351" depart="351.00" from="7002turn6_6" to="122_122turn121"/>
    <trip id="352" depart="352.00" from="178turn180_180" to="220_420"/>
    <trip id="353" depart="353.00" from="5278_72" to="43turn31_31"/>
    <trip id="354" depart="354.00" from="234_234turn193" to="142_342"/>
    <trip id="355" depart="355.00" from="5232turn36_36" to="5226_5226turn521"/>
    <trip id="356" depart="356.00" from="76turn82_82" to="375_391"/>
    <trip id="357" depart="357.00" from="406turn204_204" to="124turn139_139"/>
    <trip id="358" depart="358.00" from="115turn116_116" to="308_133"/>
    <trip id="359" depart="359.00" from="253turn248_248" to="198_198turn215"/>
    <trip id="360" depart="360.00" from="138_5250" to="88_5238"/>
    <trip id="361" depart="361.00" from="7028_7028turn132" to="447turn126_126"/>
    <trip id="362" depart="362.00" from="80_80turn85" to="9turn10_10"/>
    <trip id="363" depart="363.00" from="521_5226" to="205_205turn206"/>
    <trip id="364" depart="364.00" from="116_115" to="5263_5263turn142"/>
    <trip id="365" depart="365.00" from="388turn121_121" to="512_512turn27"/>
    <trip id="366" depart="366.00" from="7290_1990" to="168_168turn170"/>
    <trip id="367" depart="367.00" from="482_482turn231" to="506_480"/>
    <trip id="368" depart="368.00" from="405turn420_420" to="128_128turn127"/>
    <trip id="369" depart="369.00" from="280_411" to="230turn184_184"/>
    <trip id="370" depart="370.00" from="5217_5217turn61" to="67_80"/>
    <trip id="371" depart="371.00" from="261_243" to="5216_7011"/>
    <trip id="372" depart="372.00" from="234_234turn193" to="82_82turn76"/>
    <trip id="373" depart="373.00" from="66_525" to="41_40"/>
    <trip id="374" depart="374.00" from="36_36turn24" to="222turn236_236"/>
    <trip id="375" depart="375.00" from="254_2881" to="90_305"/>
    <trip id="376" depart="376.00" from="323turn155_155" to="391_391turn191"/>
    <trip id="377" depart="377.00" from="95_549" to="515_514"/>
    <trip id="378" depart="378.00" from="445_254" to="294_294turn156"/>
    <trip id="379" depart="379.00" from="187turn221_221" to="246_455"/>
    <trip id="380" depart="380.00" from="5282turn533_533" to="503_503turn5"/>
    <trip id="381" depart="381.00" from="5287turn87_87" to="178_287"/>
    <trip id="382" depart="382.00" from="451_451turn117" to="74turn52_52"/>
    <trip id="383" depart="383.00" from="356_356turn2" to="5221_5221turn530"/>
    <trip id="384" depart="384.00" from="156turn157_157" to="91_548"/>
    <trip id="385" depart="385.00" from="503turn504_504" to="193_234"/>
    <trip id="386" depart="386.00" from="174_174turn149" to="41_41turn43"/>
    <trip id="387" depart="387.00" from="453turn203_203" to="128turn127_127"/>
    <trip id="388" depart="388.00" from="97turn96_96" to="7304turn97_97"/>
    <trip id="389" depart="389.00" from="374turn252_252" to="139_5268"/>
    <trip id="390" depart="390.00" from="7009turn22_22" to="372_417"/>
    <trip id="391" depart="391.00" from="524_524turn525" to="388_388turn121"/>
    <trip id="392" depart="392.00" from="228_228turn746" to="59turn21_21"/>
    <trip id="393" depart="393.00" from="92_548" to="196_161"/>
    <trip id="394" depart="394.00" from="453_453turn203" to="254_450"/>
    <trip id="395" depart="395.00" from="7299_102" to="388_325"/>
    <trip id="396" depart="396.00" from="7222_66" to="6_6turn306"/>
    <trip id="397" depart="397.00" from="229_229turn231" to="5284_7262"/>
    <trip id="398" depart="398.00" from="337_334" to="77turn744_744"/>
    <trip id="399" depart="399.00" from="417turn372_372" to="548turn91_91"/>
    <trip id="400" depart="400.00" from="231_482" to="216turn215_215"/>
    <trip id="401" depart="401.00" from="484_484turn7" to="9_350"/>
    <trip id="402" depart="402.00" from="402_202" to="154turn153_153"/>
    <trip id="403" depart="403.00" from="440_440turn216" to="236turn240_240"/>
    <trip id="404" depart="404.00" from="453turn203_203" to="415turn172_172"/>