<?xml version="1.0" ?>
<nodes>
    
    
    <node id="1" x="-111.96307321409581" y="33.35457378845112"/>
    
    
    <node id="2" x="-111.93519908559286" y="33.451121590775955" type="traffic_light"/>
    
    
    <node id="3" x="-111.92649187856675" y="33.451277927438674" type="traffic_light"/>
    
    
    <node id="4" x="-111.89347726340424" y="33.36629902016123"/>
    
    
    <node id="5" x="-111.95480192581462" y="33.44465922680451" type="traffic_light"/>
    
    
    <node id="6" x="-111.96095591342701" y="33.43713925486163" type="traffic_light"/>
    
    
    <node id="7" x="-111.92648276409278" y="33.444075121371775" type="traffic_light"/>
    
    
    <node id="8" x="-111.94338704216689" y="33.43769128276548" type="traffic_light"/>
    
    
    <node id="9" x="-111.93089520201363" y="33.440238983161954" type="traffic_light"/>
    
    
    <node id="10" x="-111.92640774714366" y="33.440326685976984" type="traffic_light"/>
    
    
    <node id="11" x="-111.91802940035119" y="33.440449474283554" type="traffic_light"/>
    
    
    <node id="12" x="-111.90958880617916" y="33.44037931555431" type="traffic_light"/>
    
    
    <node id="13" x="-111.96091107839747" y="33.42959842362092" type="traffic_light"/>
    
    
    <node id="14" x="-111.95235707218913" y="33.430973962443154" type="traffic_light"/>
    
    
    <node id="15" x="-111.88342723320011" y="33.39169357843152"/>
    
    
    <node id="16" x="-111.94286513855712" y="33.42935901700468" type="traffic_light"/>
    
    
    <node id="17" x="-111.9263786728352" y="33.436108323279065" type="traffic_light"/>
    
    
    <node id="18" x="-111.92633352992024" y="33.4287763352613" type="traffic_light"/>
    
    
    <node id="19" x="-111.90943582319788" y="33.43672978392095" type="traffic_light"/>
    
    
    <node id="20" x="-111.90912669919096" y="33.42915864894968" type="traffic_light"/>
    
    
    <node id="21" x="-111.9291521653304" y="33.42861161738285" type="traffic_light"/>
    
    
    <node id="22" x="-111.89214923789272" y="33.42934628690815" type="traffic_light"/>
    
    
    <node id="23" x="-111.94340883687593" y="33.42547863328114" type="traffic_light"/>
    
    
    <node id="24" x="-111.96090988739658" y="33.425558684084756" type="traffic_light"/>
    
    
    <node id="25" x="-111.95647803358759" y="33.42195948103622" type="traffic_light"/>
    
    
    <node id="26" x="-111.93175791584478" y="33.42437960779446"/>
    
    
    <node id="27" x="-111.94006594414446" y="33.42547880948433" type="traffic_light"/>
    
    
    <node id="28" x="-111.94006599935175" y="33.42646813380515" type="traffic_light"/>
    
    
    <node id="29" x="-111.9400661741926" y="33.429600993111706" type="traffic_light"/>
    
    
    <node id="30" x="-111.94006588127279" y="33.424352078815346" type="traffic_light"/>
    
    
    <node id="31" x="-111.9400658168713" y="33.423197866698" type="traffic_light"/>
    
    
    <node id="32" x="-111.9674051247163" y="33.37988594098426"/>
    
    
    <node id="33" x="-111.9263503514131" y="33.424497509238094" type="traffic_light"/>
    
    
    <node id="34" x="-111.96524785396153" y="33.421949422332226" type="traffic_light"/>
    
    
    <node id="35" x="-111.96947545661833" y="33.421942829987216" type="traffic_light"/>
    
    
    <node id="36" x="-111.96090882622862" y="33.42195864186936" type="traffic_light"/>
    
    
    <node id="37" x="-111.9048004203437" y="33.4291576641219" type="traffic_light"/>
    
    
    <node id="38" x="-111.95235529894511" y="33.421960119722605" type="traffic_light"/>
    
    
    <node id="39" x="-111.94728872672854" y="33.42196071696705" type="traffic_light"/>
    
    
    <node id="40" x="-111.94419503706592" y="33.42196097989462" type="traffic_light"/>
    
    
    <node id="41" x="-111.942458113837" y="33.421961093694186" type="traffic_light"/>
    
    
    <node id="42" x="-111.90924383874601" y="33.43201397119914" type="traffic_light"/>
    
    
    <node id="43" x="-111.94006574787376" y="33.421961210619266" type="traffic_light"/>
    
    
    <node id="44" x="-111.9382305082271" y="33.42196126904284" type="traffic_light"/>
    
    
    <node id="45" x="-111.93672298994444" y="33.42196129672218" type="traffic_light"/>
    
    
    <node id="46" x="-111.93501883884159" y="33.42196130595151" type="traffic_light"/>
    
    
    <node id="47" x="-111.93083711421454" y="33.42196122939238" type="traffic_light"/>
    
    
    <node id="48" x="-111.92915246637502" y="33.42426958319979"/>
    
    
    <node id="49" x="-111.9263342226652" y="33.421960989331744" type="traffic_light"/>
    
    
    <node id="50" x="-111.9177479230194" y="33.42196007858022" type="traffic_light"/>
    
    
    <node id="51" x="-111.90912885147688" y="33.42195856663213" type="traffic_light"/>
    
    
    <node id="52" x="-111.93292161150521" y="33.41470623118316" type="traffic_light"/>
    
    
    <node id="53" x="-111.90054255242526" y="33.42195646498522" type="traffic_light"/>
    
    
    <node id="54" x="-111.92935630029346" y="33.41469512199128" type="traffic_light"/>
    
    
    <node id="55" x="-111.89215288663165" y="33.42195383741374" type="traffic_light"/>
    
    
    <node id="56" x="-111.93743436004836" y="33.43034031310407" type="traffic_light"/>
    
    
    <node id="57" x="-111.88320609521361" y="33.42195041018066" type="traffic_light"/>
    
    
    <node id="58" x="-111.93533674157844" y="33.430205675229516" type="traffic_light"/>
    
    
    <node id="59" x="-111.93128577881174" y="33.428952470159864" type="traffic_light"/>
    
    
    <node id="60" x="-111.94006558689588" y="33.419075678808575" type="traffic_light"/>
    
    
    <node id="61" x="-111.90052654200788" y="33.429255475430146" type="traffic_light"/>
    
    
    <node id="62" x="-111.92898902004421" y="33.41838858724435" type="traffic_light"/>
    
    
    <node id="63" x="-111.92633451589424" y="33.419075457545155" type="traffic_light"/>
    
    
    <node id="64" x="-111.9263347504474" y="33.41676703114794" type="traffic_light"/>
    
    
    <node id="65" x="-111.93013287652117" y="33.41570646720069" type="traffic_light"/>
    
    
    <node id="66" x="-111.90913021474303" y="33.41739667808363" type="traffic_light"/>
    
    
    <node id="67" x="-111.96953773410264" y="33.413643470560245" type="traffic_light"/>
    
    
    <node id="68" x="-111.96090624295188" y="33.41319211810389" type="traffic_light"/>
    
    
    <node id="69" x="-111.96090668826464" y="33.41470358860387" type="traffic_light"/>
    
    
    <node id="70" x="-111.95235387227304" y="33.4147050660524" type="traffic_light"/>
    
    
    <node id="71" x="-111.94005551234967" y="33.414706157035525" type="traffic_light"/>
    
    
    <node id="72" x="-111.93969183867574" y="33.416003287075" type="traffic_light"/>
    
    
    <node id="73" x="-111.93714886556727" y="33.41470623676598" type="traffic_light"/>
    
    
    <node id="74" x="-111.93508439265317" y="33.41470625203436" type="traffic_light"/>
    
    
    <node id="75" x="-111.93079159977049" y="33.41470617379694" type="traffic_light"/>
    
    
    <node id="76" x="-111.92633495984727" y="33.41470593542339" type="traffic_light"/>
    
    
    <node id="77" x="-111.98026114570114" y="33.37824679417284"/>
    
    
    <node id="78" x="-111.87894571861013" y="33.4219485513711"/>
    
    
    <node id="79" x="-111.88867366241544" y="33.407456207351466"/>
    
    
    <node id="80" x="-111.96954912599234" y="33.40928493423342" type="traffic_light"/>
    
    
    <node id="81" x="-111.97835023659876" y="33.34917478977544"/>
    
    
    <node id="82" x="-111.92633514689314" y="33.41286468932945" type="traffic_light"/>
    
    
    <node id="83" x="-111.97824795659295" y="33.40744372160569" type="traffic_light"/>
    
    
    <node id="84" x="-111.97821944869169" y="33.40943612617505" type="traffic_light"/>
    
    
    <node id="85" x="-111.96605878748315" y="33.407551780944374" type="traffic_light"/>
    
    
    <node id="86" x="-111.96090455106642" y="33.40744852684025" type="traffic_light"/>
    
    
    <node id="87" x="-111.95543251459573" y="33.40744953984068" type="traffic_light"/>
    
    
    <node id="88" x="-111.95228691273962" y="33.40745001292669" type="traffic_light"/>
    
    
    <node id="89" x="-111.94799447682422" y="33.40745052983235" type="traffic_light"/>
    
    
    <node id="90" x="-111.97327115912768" y="33.4085033788985" type="traffic_light"/>
    
    
    <node id="91" x="-111.93996663855634" y="33.407451097999385" type="traffic_light"/>
    
    
    <node id="92" x="-111.93508440218815" y="33.40745118954125" type="traffic_light"/>
    
    
    <node id="93" x="-111.92633542882565" y="33.410089078511604" type="traffic_light"/>
    
    
    <node id="94" x="-111.9263356967653" y="33.407450873017005" type="traffic_light"/>
    
    
    <node id="95" x="-111.93075919949929" y="33.40745111015709" type="traffic_light"/>
    
    
    <node id="96" x="-111.92263306116749" y="33.40745055327378" type="traffic_light"/>
    
    
    <node id="97" x="-111.91775082489839" y="33.407449962764275" type="traffic_light"/>
    
    
    <node id="98" x="-111.89263509113675" y="33.38742647002746"/>
    
    
    <node id="99" x="-111.90913318658397" y="33.40744845164422" type="traffic_light"/>
    
    
    <node id="100" x="-111.89261476688915" y="33.38207858045964"/>
    
    
    <node id="101" x="-111.93507449939061" y="33.458409579345215" type="traffic_light"/>
    
    
    <node id="102" x="-111.8977631472449" y="33.40744554207715" type="traffic_light"/>
    
    
    <node id="103" x="-111.89216004459719" y="33.40744372501585" type="traffic_light"/>
    
    
    <node id="104" x="-111.96090345038428" y="33.40371106746396" type="traffic_light"/>
    
    
    <node id="105" x="-111.960901330525" y="33.39651095554466" type="traffic_light"/>
    
    
    <node id="106" x="-111.92633610139966" y="33.4034660813377" type="traffic_light"/>
    
    
    <node id="107" x="-111.97826572499588" y="33.40361007145717" type="traffic_light"/>
    
    
    <node id="108" x="-111.9782803851662" y="33.40011993680887" type="traffic_light"/>
    
    
    <node id="109" x="-111.9609023984515" y="33.40013849389346" type="traffic_light"/>
    
    
    <node id="110" x="-111.95228548177877" y="33.40013997956975" type="traffic_light"/>
    
    
    <node id="111" x="-111.9398351835419" y="33.40014106930852" type="traffic_light"/>
    
    
    <node id="112" x="-111.93508441171973" y="33.40019611855102"/>
    
    
    <node id="113" x="-111.92633643341941" y="33.40019580211349" type="traffic_light"/>
    
    
    <node id="114" x="-111.90913538579116" y="33.40008345603194" type="traffic_light"/>
    
    
    <node id="115" x="-111.90913591085668" y="33.39832464981444" type="traffic_light"/>
    
    
    <node id="116" x="-111.90913642767352" y="33.39659332445642" type="traffic_light"/>
    
    
    <node id="117" x="-111.93994671426144" y="33.40259240065256" type="traffic_light"/>
    
    
    <node id="118" x="-111.97830956679829" y="33.39286484791455" type="traffic_light"/>
    
    
    <node id="119" x="-111.9722815040152" y="33.39286679551456" type="traffic_light"/>
    
    
    <node id="120" x="-111.96090027896616" y="33.39293837782219" type="traffic_light"/>
    
    
    <node id="121" x="-111.95208750539769" y="33.39293988999983" type="traffic_light"/>
    
    
    <node id="122" x="-111.94795958906278" y="33.392940383089964" type="traffic_light"/>
    
    
    <node id="123" x="-111.94379891144654" y="33.39294074115219" type="traffic_light"/>
    
    
    <node id="124" x="-111.93973651752691" y="33.392940956169426" type="traffic_light"/>
    
    
    <node id="125" x="-111.93508442124788" y="33.3929410390646" type="traffic_light"/>
    
    
    <node id="126" x="-111.91137838737073" y="33.392938753016246" type="traffic_light"/>
    
    
    <node id="127" x="-111.92633716980964" y="33.39294072271374" type="traffic_light"/>
    
    
    <node id="128" x="-111.9229955232191" y="33.392940439105836" type="traffic_light"/>
    
    
    <node id="129" x="-111.9177209634585" y="33.392939808350015" type="traffic_light"/>
    
    
    <node id="130" x="-111.90913751858619" y="33.39293830266735" type="traffic_light"/>
    
    
    <node id="131" x="-111.90484579627562" y="33.39293732720253" type="traffic_light"/>
    
    
    <node id="132" x="-111.90055407406822" y="33.392936203322066" type="traffic_light"/>
    
    
    <node id="133" x="-111.89076664501863" y="33.3832926114093"/>
    
    
    <node id="134" x="-111.93780425379371" y="33.414706224734786"/>
    
    
    <node id="135" x="-111.89216719743611" y="33.39293357862817" type="traffic_light"/>
    
    
    <node id="136" x="-111.89060051375239" y="33.387881946810346"/>
    
    
    <node id="137" x="-111.89054389131228" y="33.389703942797425"/>
    
    
    <node id="138" x="-111.88341011942548" y="33.3929302332161" type="traffic_light"/>
    
    
    <node id="139" x="-111.93963799633917" y="33.38826912375383" type="traffic_light"/>
    
    
    <node id="140" x="-111.96089885561281" y="33.38810165393099" type="traffic_light"/>
    
    
    <node id="141" x="-111.93957236728193" y="33.38607061381606" type="traffic_light"/>
    
    
    <node id="142" x="-111.92653441343832" y="33.38612535123431" type="traffic_light"/>
    
    
    <node id="143" x="-111.94293072932365" y="33.42982069734695"/>
    
    
    <node id="144" x="-111.90927056250221" y="33.386205389591716" type="traffic_light"/>
    
    
    <node id="145" x="-111.88498623153583" y="33.36391597872517"/>
    
    
    <node id="146" x="-111.92936842524468" y="33.380348922080394"/>
    
    
    <node id="147" x="-111.92655109532488" y="33.38306941908737" type="traffic_light"/>
    
    
    <node id="148" x="-111.89786913193443" y="33.33578489279039"/>
    
    
    <node id="149" x="-111.92870407748309" y="33.372148423896896" type="traffic_light"/>
    
    
    <node id="150" x="-111.92840541586207" y="33.37993390344834" type="traffic_light"/>
    
    
    <node id="151" x="-111.89391871782581" y="33.3746892618887"/>
    
    
    <node id="152" x="-111.97407687151211" y="33.37826537401074" type="traffic_light"/>
    
    
    <node id="153" x="-111.97196740560818" y="33.378274261205874" type="traffic_light"/>
    
    
    <node id="154" x="-111.96975968183172" y="33.378307873245696" type="traffic_light"/>
    
    
    <node id="155" x="-111.96859359071864" y="33.37834391830667" type="traffic_light"/>
    
    
    <node id="156" x="-111.96315283953402" y="33.37828755175679" type="traffic_light"/>
    
    
    <node id="157" x="-111.96114163597815" y="33.37828524023591" type="traffic_light"/>
    
    
    <node id="158" x="-111.89269556734169" y="33.37759089016205"/>
    
    
    <node id="159" x="-111.95250066835412" y="33.37827575281467" type="traffic_light"/>
    
    
    <node id="160" x="-111.94600520517727" y="33.37827923636506" type="traffic_light"/>
    
    
    <node id="161" x="-111.95517800064245" y="33.354814399196826"/>
    
    
    <node id="162" x="-111.93942130219418" y="33.378307116360794" type="traffic_light"/>
    
    
    <node id="163" x="-111.93532355748681" y="33.378329173260525" type="traffic_light"/>
    
    
    <node id="164" x="-111.90268428311536" y="33.36457318659231"/>
    
    
    <node id="165" x="-111.92873964698205" y="33.378361982987165" type="traffic_light"/>
    
    
    <node id="166" x="-111.92063258614863" y="33.37840251853856" type="traffic_light"/>
    
    
    <node id="167" x="-111.93912838200842" y="33.34729698851365"/>
    
    
    <node id="168" x="-111.90934164890513" y="33.37845839107508" type="traffic_light"/>
    
    
    <node id="169" x="-111.96239546417269" y="33.38650466557631"/>
    
    
    <node id="170" x="-111.90069737483022" y="33.378497511564625" type="traffic_light"/>
    
    
    <node id="171" x="-111.96245661982586" y="33.351515228432326"/>
    
    
    <node id="172" x="-111.89372364334565" y="33.378531103203876" type="traffic_light"/>
    
    
    <node id="173" x="-111.91799695804474" y="33.43874288911307"/>
    
    
    <node id="174" x="-111.92869787062912" y="33.36752603860781" type="traffic_light"/>
    
    
    <node id="175" x="-111.91134801020355" y="33.372209509955724" type="traffic_light"/>
    
    
    <node id="176" x="-111.9205901166575" y="33.377726470039875"/>
    
    
    <node id="177" x="-111.91134219466966" y="33.369516324313544" type="traffic_light"/>
    
    
    <node id="178" x="-111.9546036351151" y="33.363740490064245" type="traffic_light"/>
    
    
    <node id="179" x="-111.97127826756098" y="33.35139755618618"/>
    
    
    <node id="180" x="-111.94593790793786" y="33.36374703831445" type="traffic_light"/>
    
    
    <node id="181" x="-111.93856909199945" y="33.36376944220424" type="traffic_light"/>
    
    
    <node id="182" x="-111.90068129547907" y="33.37774176745233"/>
    
    
    <node id="183" x="-111.92864902249721" y="33.363796796669206" type="traffic_light"/>
    
    
    <node id="184" x="-111.91999966570063" y="33.3637877946331" type="traffic_light"/>
    
    
    <node id="185" x="-111.91065362976096" y="33.37223410792564"/>
    
    
    <node id="186" x="-111.91133393634132" y="33.363775438747034" type="traffic_light"/>
    
    
    <node id="187" x="-111.96193741709718" y="33.34556008434142"/>
    
    
    <node id="188" x="-111.90266818392602" y="33.36383118178175" type="traffic_light"/>
    
    
    <node id="189" x="-111.97167910917838" y="33.34676954268747"/>
    
    
    <node id="190" x="-111.95449624010038" y="33.35198665526618"/>
    
    
    <node id="191" x="-111.8941268744183" y="33.363880864899755" type="traffic_light"/>
    
    
    <node id="192" x="-111.90072315224133" y="33.37958028736253"/>
    
    
    <node id="193" x="-111.92862326685031" y="33.35788552034485" type="traffic_light"/>
    
    
    <node id="194" x="-111.95846772309139" y="33.34975447164894"/>
    
    
    <node id="195" x="-111.91132521890287" y="33.35971916543421" type="traffic_light"/>
    
    
    <node id="196" x="-111.94586804580534" y="33.35484302965839" type="traffic_light"/>
    
    
    <node id="197" x="-111.9285938932007" y="33.356566405054096" type="traffic_light"/>
    
    
    <node id="198" x="-111.9112965593372" y="33.35674016198737" type="traffic_light"/>
    
    
    <node id="199" x="-111.88771563162291" y="33.34947000976019"/>
    
    
    <node id="200" x="-111.92067504944247" y="33.37911978910658"/>
    
    
    <node id="201" x="-111.94006546426148" y="33.41687717747903"/>
    
    
    <node id="202" x="-111.97288513267766" y="33.349198553773654" type="traffic_light"/>
    
    
    <node id="203" x="-111.9659530552875" y="33.34921970106507" type="traffic_light"/>
    
    
    <node id="204" x="-111.96319266662019" y="33.349228598461785" type="traffic_light"/>
    
    
    <node id="205" x="-111.95857564369848" y="33.34923779787396" type="traffic_light"/>
    
    
    <node id="206" x="-111.95441377164272" y="33.3492385115693" type="traffic_light"/>
    
    
    <node id="207" x="-111.93854948900093" y="33.36500061413158"/>
    
    
    <node id="208" x="-111.94574293180459" y="33.34923955047582" type="traffic_light"/>
    
    
    <node id="209" x="-111.93887633544982" y="33.34927841784404" type="traffic_light"/>
    
    
    <node id="210" x="-111.92861408908178" y="33.34929753479965" type="traffic_light"/>
    
    
    <node id="211" x="-111.91255984320192" y="33.35973863375123"/>
    
    
    <node id="212" x="-111.91017574198128" y="33.35969970203006"/>
    
    
    <node id="213" x="-111.91992032778212" y="33.34926379160582" type="traffic_light"/>
    
    
    <node id="214" x="-111.90265209932792" y="33.36305070277232"/>
    
    
    <node id="215" x="-111.91122001523809" y="33.34926241640828" type="traffic_light"/>
    
    
    <node id="216" x="-111.90689113346677" y="33.349291734809654" type="traffic_light"/>
    
    
    <node id="217" x="-111.9124524986925" y="33.36953302160089"/>
    
    
    <node id="218" x="-111.91043822995688" y="33.36950515471795"/>
    
    
    <node id="219" x="-111.89803033701705" y="33.3493635990946" type="traffic_light"/>
    
    
    <node id="220" x="-111.8944938703381" y="33.34939821629927" type="traffic_light"/>
    
    
    <node id="221" x="-111.963230782132" y="33.345551554669036" type="traffic_light"/>
    
    
    <node id="222" x="-111.92852296086623" y="33.34199292400091" type="traffic_light"/>
    
    
    <node id="223" x="-111.89386821750486" y="33.37758304171354"/>
    
    
    <node id="224" x="-111.9263920325499" y="33.43364600946191" type="traffic_light"/>
    
    
    <node id="225" x="-111.92659722958213" y="33.44677102966824" type="traffic_light"/>
    
    
    <node id="226" x="-111.9631898176599" y="33.34032456393609" type="traffic_light"/>
    
    
    <node id="227" x="-111.92705883333441" y="33.38311067555684"/>
    
    
    <node id="228" x="-111.96675331259178" y="33.334618524984265" type="traffic_light"/>
    
    
    <node id="229" x="-111.96313561511005" y="33.33463588030997" type="traffic_light"/>
    
    
    <node id="230" x="-111.91999354294889" y="33.36133094669989"/>
    
    
    <node id="231" x="-111.95434836656413" y="33.33466502747402" type="traffic_light"/>
    
    
    <node id="232" x="-111.94568552136676" y="33.33468804622271" type="traffic_light"/>
    
    
    <node id="233" x="-111.92005248065257" y="33.43693489566583"/>
    
    
    <node id="234" x="-111.93157387328132" y="33.35782518217501"/>
    
    
    <node id="235" x="-111.92550564548839" y="33.3579045531732"/>
    
    
    <node id="236" x="-111.92847112998928" y="33.33475426259205" type="traffic_light"/>
    
    
    <node id="237" x="-111.91994307088578" y="33.35028610876088"/>
    
    
    <node id="238" x="-111.91989758760886" y="33.34822773349069"/>
    
    
    <node id="239" x="-111.92000267177856" y="33.36533500363374"/>
    
    
    <node id="240" x="-111.91122070187829" y="33.33480984177666" type="traffic_light"/>
    
    
    <node id="241" x="-111.89807334629934" y="33.3483248085761"/>
    
    
    <node id="242" x="-111.91236337773103" y="33.37217122682729"/>
    
    
    <node id="243" x="-111.96311649312953" y="33.32600664522449" type="traffic_light"/>
    
    
    <node id="244" x="-111.89787276809798" y="33.3349357114934" type="traffic_light"/>
    
    
    <node id="245" x="-111.89371483747955" y="33.33496187404051" type="traffic_light"/>
    
    
    <node id="246" x="-111.96969168802464" y="33.43006622137991" type="traffic_light"/>
    
    
    <node id="247" x="-111.94853219426707" y="33.431142067948784" type="traffic_light"/>
    
    
    <node id="248" x="-111.92839639442606" y="33.32748261345918" type="traffic_light"/>
    
    
    <node id="249" x="-111.91773663609001" y="33.429228862964045" type="traffic_light"/>
    
    
    <node id="250" x="-111.9654621347568" y="33.37833098053617" type="traffic_light"/>
    
    
    <node id="251" x="-111.96097647660753" y="33.38470768423416" type="traffic_light"/>
    
    
    <node id="252" x="-111.96163040072675" y="33.38061281479227" type="traffic_light"/>
    
    
    <node id="253" x="-111.92832138839718" y="33.32381105741168" type="traffic_light"/>
    
    
    <node id="254" x="-111.89264376080318" y="33.33597833199447"/>
    
    
    <node id="255" x="-111.92536334046487" y="33.34201744741082"/>
    
    
    <node id="256" x="-111.89357158093917" y="33.33328544633806"/>
    
    
    <node id="257" x="-111.89266470564137" y="33.333301628091746"/>
    
    
    <node id="258" x="-111.96546201196863" y="33.377976469966406"/>
    
    
    <node id="259" x="-111.97195456805183" y="33.37890358996506"/>
    
    
    <node id="260" x="-111.93148285067383" y="33.34200953679896"/>
    
    
    <node id="261" x="-111.96310118032468" y="33.31904553693413"/>
    
    
    <node id="262" x="-111.91123821442785" y="33.33063538346385"/>
    
    
    <node id="263" x="-111.92825948243956" y="33.320136751708354"/>
    
    
    <node id="264" x="-111.97824063510475" y="33.4191727363079"/>
    
    
    <node id="265" x="-111.9297942525215" y="33.32748268214282"/>
    
    
    <node id="266" x="-111.92674646356248" y="33.32748251214986"/>
    
    
    <node id="267" x="-111.92947694699504" y="33.32380012333773"/>
    
    
    <node id="268" x="-111.89369788388689" y="33.33619304536638"/>
    
    
    <node id="269" x="-111.945629009645" y="33.32751533987283"/>
    
    
    <node id="270" x="-111.93859808781524" y="33.35143572874802"/>
    
    
    <node id="271" x="-111.96147440548006" y="33.384724068671574"/>
    
    
    <node id="272" x="-111.96686184672281" y="33.33598433445822"/>
    
    
    <node id="273" x="-111.96693286109362" y="33.33318943407514"/>
    
    
    <node id="274" x="-111.93938189096585" y="33.376127838909596"/>
    
    
    <node id="275" x="-111.91368581151002" y="33.41533645624378"/>
    
    
    <node id="276" x="-111.97262103627844" y="33.336546106179654"/>
    
    
    <node id="277" x="-111.97280934518763" y="33.33286076223487"/>
    
    
    <node id="278" x="-111.97225601343106" y="33.39455965564821"/>
    
    
    <node id="279" x="-111.97178608875149" y="33.33636772436195"/>
    
    
    <node id="280" x="-111.89449254448826" y="33.36631584609393"/>
    
    
    <node id="281" x="-111.92759308580924" y="33.37961507167174"/>
    
    
    <node id="282" x="-111.8929355742756" y="33.37574696701831"/>
    
    
    <node id="283" x="-111.89214563696619" y="33.396794703097015"/>
    
    
    <node id="284" x="-111.95610009037154" y="33.44486787151786"/>
    
    
    <node id="285" x="-111.96859642196715" y="33.37718145249598"/>
    
    
    <node id="286" x="-111.95455997174447" y="33.37361459435317"/>
    
    
    <node id="287" x="-111.95666690159176" y="33.363731906000424"/>
    
    
    <node id="288" x="-111.88340511316409" y="33.33504319595685"/>
    
    
    <node id="289" x="-111.8937111766035" y="33.3357780772331"/>
    
    
    <node id="290" x="-111.9113508235903" y="33.37390236874138"/>
    
    
    <node id="291" x="-111.97251075595469" y="33.34665387297157"/>
    
    
    <node id="292" x="-111.90503526131346" y="33.41349340875608"/>
    
    
    <node id="293" x="-111.90940426787903" y="33.37716127995705"/>
    
    
    <node id="294" x="-111.96238354296185" y="33.37977721656827"/>
    
    
    <node id="295" x="-111.9695853857451" y="33.426460714948554"/>
    
    
    <node id="296" x="-111.98307959888461" y="33.392863099252835"/>
    
    
    <node id="297" x="-111.98214719457977" y="33.407447803742606"/>
    
    
    <node id="298" x="-111.96942392778571" y="33.407545402086434"/>
    
    
    <node id="299" x="-111.97819728870675" y="33.41101356036418"/>
    
    
    <node id="300" x="-111.98164750537687" y="33.41053139400616"/>
    
    
    <node id="301" x="-111.9662058267108" y="33.40639478096952"/>
    
    
    <node id="302" x="-111.93229870380576" y="33.42339579320875"/>
    
    
    <node id="303" x="-111.89052171053538" y="33.407443145902654" type="traffic_light"/>
    
    
    <node id="304" x="-111.9733454966697" y="33.4136506026031"/>
    
    
    <node id="305" x="-111.97128832349807" y="33.407470674270385"/>
    
    
    <node id="306" x="-111.96091044997002" y="33.4385820261077" type="traffic_light"/>
    
    
    <node id="307" x="-111.95772199592079" y="33.441998555182735"/>
    
    
    <node id="308" x="-111.89192742860364" y="33.3809433598769"/>
    
    
    <node id="309" x="-111.94416192994046" y="33.354851408990335"/>
    
    
    <node id="310" x="-111.89803984877082" y="33.350097359781934"/>
    
    
    <node id="311" x="-111.96834865986405" y="33.33709695240031"/>
    
    
    <node id="312" x="-111.95484819545976" y="33.44633007303413"/>
    
    
    <node id="313" x="-111.95099924120309" y="33.44395900030625"/>
    
    
    <node id="314" x="-111.94524260583297" y="33.440521707175165"/>
    
    
    <node id="315" x="-111.97198682532485" y="33.37771913032767"/>
    
    
    <node id="316" x="-111.96738769563144" y="33.37703337200418"/>
    
    
    <node id="317" x="-111.9297514764063" y="33.43605080679565"/>
    
    
    <node id="318" x="-111.96976032646243" y="33.37993752228479"/>
    
    
    <node id="319" x="-111.93480245996173" y="33.44016210993841"/>
    
    
    <node id="320" x="-111.9378344848309" y="33.43915077549675"/>
    
    
    <node id="321" x="-111.89166860529515" y="33.334985907247315"/>
    
    
    <node id="322" x="-111.89051049246073" y="33.429345707315896" type="traffic_light"/>
    
    
    <node id="323" x="-111.96859093796242" y="33.37997356823725"/>
    
    
    <node id="324" x="-111.89336176417922" y="33.37495839369171"/>
    
    
    <node id="325" x="-111.95250266000477" y="33.38833120412451"/>
    
    
    <node id="326" x="-111.92221475289104" y="33.444052763017"/>
    
    
    <node id="327" x="-111.91802867006182" y="33.444156682433324"/>
    
    
    <node id="328" x="-111.90937385892752" y="33.44673566145761"/>
    
    
    <node id="329" x="-111.94304934759249" y="33.43679541809619"/>
    
    
    <node id="330" x="-111.94083666812082" y="33.433951235304434"/>
    
    
    <node id="331" x="-111.94964074781986" y="33.43560214227347"/>
    
    
    <node id="332" x="-111.95239080731346" y="33.435840877893845"/>
    
    
    <node id="333" x="-111.9466219644143" y="33.43562169387865"/>
    
    
    <node id="334" x="-111.9495688416724" y="33.4368388039692"/>
    
    
    <node id="335" x="-111.89052913565568" y="33.39293299983219" type="traffic_light"/>
    
    
    <node id="336" x="-111.95288593210577" y="33.436761427967014"/>
    
    