<?xml version="1.0" ?>
<edges>
    <edge id="171_1" from="171" to="1" numLanes="1" speed="13.4112"/>
    <edge id="357_357turn2" from="357" to="357turn2" numLanes="2" speed="15.6464">
        <lane index="0" length="39.624" speed="15.6464"/>
        <lane index="1" length="39.624" speed="15.6464"/>
    </edge>
    <edge id="357turn2_2" from="357turn2" to="2" numLanes="2" speed="15.6464"/>
    <edge id="101_101turn2" from="101" to="101turn2" numLanes="2" speed="15.6464">
        <lane index="0" length="30.48" speed="15.6464"/>
        <lane index="1" length="30.48" speed="15.6464"/>
    </edge>
    <edge id="101turn2_2" from="101turn2" to="2" numLanes="2" speed="15.6464"/>
    <edge id="356_356turn2" from="356" to="356turn2" numLanes="2" speed="17.8816">
        <lane index="0" length="62.484" speed="17.8816"/>
        <lane index="1" length="62.484" speed="17.8816"/>
    </edge>
    <edge id="356turn2_2" from="356turn2" to="2" numLanes="2" speed="17.8816"/>
    <edge id="3_2" from="3" to="2" numLanes="3" speed="17.8816">
        <lane index="0" length="809.8536" speed="17.8816"/>
        <lane index="1" length="809.8536" speed="17.8816"/>
        <lane index="2" length="809.8536" speed="17.8816"/>
    </edge>
    <edge id="225_225turn3" from="225" to="225turn3" numLanes="2" speed="17.8816">
        <lane index="0" length="30.48" speed="17.8816"/>
        <lane index="1" length="30.48" speed="17.8816"/>
    </edge>
    <edge id="225turn3_3" from="225turn3" to="3" numLanes="5" speed="17.8816"/>
    <edge id="351_351turn3" from="351" to="351turn3" numLanes="2" speed="17.8816">
        <lane index="0" length="60.96" speed="17.8816"/>
        <lane index="1" length="60.96" speed="17.8816"/>
    </edge>
    <edge id="351turn3_3" from="351turn3" to="3" numLanes="5" speed="17.8816"/>
    <edge id="2_2turn3" from="2" to="2turn3" numLanes="2" speed="17.8816">
        <lane index="0" length="45.72" speed="17.8816"/>
        <lane index="1" length="45.72" speed="17.8816"/>
    </edge>
    <edge id="2turn3_3" from="2turn3" to="3" numLanes="3" speed="17.8816"/>
    <edge id="352_352turn3" from="352" to="352turn3" numLanes="2" speed="17.8816">
        <lane index="0" length="35.052" speed="17.8816"/>
        <lane index="1" length="35.052" speed="17.8816"/>
    </edge>
    <edge id="352turn3_3" from="352turn3" to="3" numLanes="3" speed="17.8816"/>
    <edge id="411_4" from="411" to="4" numLanes="3" speed="13.4112">
        <lane index="0" length="138.684" speed="13.4112"/>
        <lane index="1" length="138.684" speed="13.4112"/>
        <lane index="2" length="138.684" speed="13.4112"/>
    </edge>
    <edge id="503_503turn5" from="503" to="503turn5" numLanes="2" speed="15.6464">
        <lane index="0" length="76.2" speed="15.6464"/>
        <lane index="1" length="76.2" speed="15.6464"/>
    </edge>
    <edge id="503turn5_5" from="503turn5" to="5" numLanes="5" speed="15.6464"/>
    <edge id="312_312turn5" from="312" to="312turn5" numLanes="2" speed="15.6464">
        <lane index="0" length="77.724" speed="15.6464"/>
        <lane index="1" length="77.724" speed="15.6464"/>
    </edge>
    <edge id="312turn5_5" from="312turn5" to="5" numLanes="5" speed="15.6464"/>
    <edge id="284_284turn5" from="284" to="284turn5" numLanes="2" speed="13.4112">
        <lane index="0" length="25.908" speed="13.4112"/>
        <lane index="1" length="25.908" speed="13.4112"/>
    </edge>
    <edge id="284turn5_5" from="284turn5" to="5" numLanes="3" speed="13.4112"/>
    <edge id="313_313turn5" from="313" to="313turn5" numLanes="2" speed="13.4112">
        <lane index="0" length="41.148" speed="13.4112"/>
        <lane index="1" length="41.148" speed="13.4112"/>
    </edge>
    <edge id="313turn5_5" from="313turn5" to="5" numLanes="4" speed="13.4112"/>
    <edge id="7002_7002turn6" from="7002" to="7002turn6" numLanes="2" speed="20.1168">
        <lane index="0" length="45.72" speed="20.1168"/>
        <lane index="1" length="45.72" speed="20.1168"/>
    </edge>
    <edge id="7002turn6_6" from="7002turn6" to="6" numLanes="5" speed="20.1168"/>
    <edge id="306_306turn6" from="306" to="306turn6" numLanes="2" speed="20.1168">
        <lane index="0" length="115.82400000000001" speed="20.1168"/>
        <lane index="1" length="115.82400000000001" speed="20.1168"/>
    </edge>
    <edge id="306turn6_6" from="306turn6" to="6" numLanes="5" speed="20.1168"/>
    <edge id="339_6" from="339" to="6" numLanes="4" speed="13.4112">
        <lane index="0" length="245.9736" speed="13.4112"/>
        <lane index="1" length="245.9736" speed="13.4112"/>
        <lane index="2" length="245.9736" speed="13.4112"/>
        <lane index="3" length="245.9736" speed="13.4112"/>
    </edge>
    <edge id="10_10turn7" from="10" to="10turn7" numLanes="2" speed="17.8816">
        <lane index="0" length="32.004000000000005" speed="17.8816"/>
        <lane index="1" length="32.004000000000005" speed="17.8816"/>
    </edge>
    <edge id="10turn7_7" from="10turn7" to="7" numLanes="4" speed="17.8816"/>
    <edge id="225_225turn7" from="225" to="225turn7" numLanes="2" speed="17.8816">
        <lane index="0" length="30.48" speed="17.8816"/>
        <lane index="1" length="30.48" speed="17.8816"/>
    </edge>
    <edge id="225turn7_7" from="225turn7" to="7" numLanes="4" speed="17.8816"/>
    <edge id="484_484turn7" from="484" to="484turn7" numLanes="2" speed="13.4112">
        <lane index="0" length="73.152" speed="13.4112"/>
        <lane index="1" length="73.152" speed="13.4112"/>
    </edge>
    <edge id="484turn7_7" from="484turn7" to="7" numLanes="3" speed="13.4112"/>
    <edge id="326_326turn7" from="326" to="326turn7" numLanes="2" speed="13.4112">
        <lane index="0" length="15.24" speed="13.4112"/>
        <lane index="1" length="15.24" speed="13.4112"/>
    </edge>
    <edge id="326turn7_7" from="326turn7" to="7" numLanes="3" speed="13.4112"/>
    <edge id="329_329turn8" from="329" to="329turn8" numLanes="2" speed="15.6464">
        <lane index="0" length="82.296" speed="15.6464"/>
        <lane index="1" length="82.296" speed="15.6464"/>
    </edge>
    <edge id="329turn8_8" from="329turn8" to="8" numLanes="5" speed="15.6464"/>
    <edge id="314_314turn8" from="314" to="314turn8" numLanes="2" speed="15.6464">
        <lane index="0" length="53.34" speed="15.6464"/>
        <lane index="1" length="53.34" speed="15.6464"/>
    </edge>
    <edge id="314turn8_8" from="314turn8" to="8" numLanes="5" speed="15.6464"/>
    <edge id="507_507turn8" from="507" to="507turn8" numLanes="2" speed="20.1168">
        <lane index="0" length="65.532" speed="20.1168"/>
        <lane index="1" length="65.532" speed="20.1168"/>
    </edge>
    <edge id="507turn8_8" from="507turn8" to="8" numLanes="5" speed="20.1168"/>
    <edge id="320_320turn8" from="320" to="320turn8" numLanes="2" speed="20.1168">
        <lane index="0" length="68.58" speed="20.1168"/>
        <lane index="1" length="68.58" speed="20.1168"/>
    </edge>
    <edge id="320turn8_8" from="320turn8" to="8" numLanes="4" speed="20.1168"/>
    <edge id="349_349turn9" from="349" to="349turn9" numLanes="2" speed="15.6464">
        <lane index="0" length="33.528" speed="15.6464"/>
        <lane index="1" length="33.528" speed="15.6464"/>
    </edge>
    <edge id="349turn9_9" from="349turn9" to="9" numLanes="3" speed="15.6464"/>
    <edge id="350_350turn9" from="350" to="350turn9" numLanes="2" speed="15.6464">
        <lane index="0" length="48.768" speed="15.6464"/>
        <lane index="1" length="48.768" speed="15.6464"/>
    </edge>
    <edge id="350turn9_9" from="350turn9" to="9" numLanes="3" speed="15.6464"/>
    <edge id="319_319turn9" from="319" to="319turn9" numLanes="2" speed="20.1168">
        <lane index="0" length="53.34" speed="20.1168"/>
        <lane index="1" length="53.34" speed="20.1168"/>
    </edge>
    <edge id="319turn9_9" from="319turn9" to="9" numLanes="4" speed="20.1168"/>
    <edge id="10_10turn9" from="10" to="10turn9" numLanes="2" speed="17.8816">
        <lane index="0" length="45.72" speed="17.8816"/>
        <lane index="1" length="45.72" speed="17.8816"/>
    </edge>
    <edge id="10turn9_9" from="10turn9" to="9" numLanes="3" speed="17.8816"/>
    <edge id="17_17turn10" from="17" to="17turn10" numLanes="2" speed="17.8816">
        <lane index="0" length="45.72" speed="17.8816"/>
        <lane index="1" length="45.72" speed="17.8816"/>
    </edge>
    <edge id="17turn10_10" from="17turn10" to="10" numLanes="5" speed="17.8816"/>
    <edge id="7_7turn10" from="7" to="7turn10" numLanes="2" speed="17.8816">
        <lane index="0" length="44.196000000000005" speed="17.8816"/>
        <lane index="1" length="44.196000000000005" speed="17.8816"/>
    </edge>
    <edge id="7turn10_10" from="7turn10" to="10" numLanes="5" speed="17.8816"/>
    <edge id="9_9turn10" from="9" to="9turn10" numLanes="2" speed="17.8816">
        <lane index="0" length="33.528" speed="17.8816"/>
        <lane index="1" length="33.528" speed="17.8816"/>
    </edge>
    <edge id="9turn10_10" from="9turn10" to="10" numLanes="5" speed="17.8816"/>
    <edge id="11_11turn10" from="11" to="11turn10" numLanes="2" speed="17.8816">
        <lane index="0" length="86.86800000000001" speed="17.8816"/>
        <lane index="1" length="86.86800000000001" speed="17.8816"/>
    </edge>
    <edge id="11turn10_10" from="11turn10" to="10" numLanes="5" speed="17.8816"/>
    <edge id="173_173turn11" from="173" to="173turn11" numLanes="2" speed="13.4112">
        <lane index="0" length="44.196000000000005" speed="13.4112"/>
        <lane index="1" length="44.196000000000005" speed="13.4112"/>
    </edge>
    <edge id="173turn11_11" from="173turn11" to="11" numLanes="2" speed="13.4112"/>
    <edge id="327_327turn11" from="327" to="327turn11" numLanes="2" speed="13.4112">
        <lane index="0" length="30.48" speed="13.4112"/>
        <lane index="1" length="30.48" speed="13.4112"/>
    </edge>
    <edge id="327turn11_11" from="327turn11" to="11" numLanes="2" speed="13.4112"/>
    <edge id="10_10turn11" from="10" to="10turn11" numLanes="2" speed="17.8816">
        <lane index="0" length="30.48" speed="17.8816"/>
        <lane index="1" length="30.48" speed="17.8816"/>
    </edge>
    <edge id="10turn11_11" from="10turn11" to="11" numLanes="3" speed="17.8816"/>
    <edge id="12_12turn11" from="12" to="12turn11" numLanes="2" speed="17.8816">
        <lane index="0" length="24.384" speed="17.8816"/>
        <lane index="1" length="24.384" speed="17.8816"/>
    </edge>
    <edge id="12turn11_11" from="12turn11" to="11" numLanes="3" speed="17.8816"/>
    <edge id="19_19turn12" from="19" to="19turn12" numLanes="2" speed="20.1168">
        <lane index="0" length="48.768" speed="20.1168"/>
        <lane index="1" length="48.768" speed="20.1168"/>
    </edge>
    <edge id="19turn12_12" from="19turn12" to="12" numLanes="4" speed="20.1168"/>
    <edge id="328_12" from="328" to="12" numLanes="3" speed="20.1168">
        <lane index="0" length="705.3072000000001" speed="20.1168"/>
        <lane index="1" length="705.3072000000001" speed="20.1168"/>
        <lane index="2" length="705.3072000000001" speed="20.1168"/>
    </edge>
    <edge id="11_12" from="11" to="12" numLanes="3" speed="17.8816">
        <lane index="0" length="784.86" speed="17.8816"/>
        <lane index="1" length="784.86" speed="17.8816"/>
        <lane index="2" length="784.86" speed="17.8816"/>
    </edge>
    <edge id="24_24turn13" from="24" to="24turn13" numLanes="2" speed="17.8816">
        <lane index="0" length="64.00800000000001" speed="17.8816"/>
        <lane index="1" length="64.00800000000001" speed="17.8816"/>
    </edge>
    <edge id="24turn13_13" from="24turn13" to="13" numLanes="6" speed="17.8816"/>
    <edge id="7002_7002turn13" from="7002" to="7002turn13" numLanes="2" speed="20.1168">
        <lane index="0" length="59.436" speed="20.1168"/>
        <lane index="1" length="59.436" speed="20.1168"/>
    </edge>
    <edge id="7002turn13_13" from="7002turn13" to="13" numLanes="6" speed="20.1168"/>
    <edge id="7001_7001turn13" from="7001" to="7001turn13" numLanes="2" speed="17.8816">
        <lane index="0" length="67.056" speed="17.8816"/>
        <lane index="1" length="67.056" speed="17.8816"/>
    </edge>
    <edge id="7001turn13_13" from="7001turn13" to="13" numLanes="5" speed="17.8816"/>
    <edge id="486_486turn13" from="486" to="486turn13" numLanes="2" speed="17.8816">
        <lane index="0" length="91.44" speed="17.8816"/>
        <lane index="1" length="91.44" speed="17.8816"/>
    </edge>
    <edge id="486turn13_13" from="486turn13" to="13" numLanes="5" speed="17.8816"/>
    <edge id="5230_5230turn14" from="5230" to="5230turn14" numLanes="2" speed="13.4112">
        <lane index="0" length="30.48" speed="13.4112"/>
        <lane index="1" length="30.48" speed="13.4112"/>
    </edge>
    <edge id="5230turn14_14" from="5230turn14" to="14" numLanes="2" speed="13.4112"/>
    <edge id="7003_7003turn14" from="7003" to="7003turn14" numLanes="2" speed="13.4112">
        <lane index="0" length="10.668000000000001" speed="13.4112"/>
        <lane index="1" length="10.668000000000001" speed="13.4112"/>
    </edge>
    <edge id="7003turn14_14" from="7003turn14" to="14" numLanes="3" speed="13.4112"/>
    <edge id="486_486turn14" from="486" to="486turn14" numLanes="2" speed="17.8816">
        <lane index="0" length="64.00800000000001" speed="17.8816"/>
        <lane index="1" length="64.00800000000001" speed="17.8816"/>
    </edge>
    <edge id="486turn14_14" from="486turn14" to="14" numLanes="4" speed="17.8816"/>
    <edge id="247_247turn14" from="247" to="247turn14" numLanes="2" speed="13.4112">
        <lane index="0" length="60.96" speed="13.4112"/>
        <lane index="1" length="60.96" speed="13.4112"/>
    </edge>
    <edge id="247turn14_14" from="247turn14" to="14" numLanes="3" speed="13.4112"/>
    <edge id="138_15" from="138" to="15" numLanes="1" speed="13.4112"/>
    <edge id="509_509turn16" from="509" to="509turn16" numLanes="2" speed="13.4112">
        <lane index="0" length="30.48" speed="13.4112"/>
        <lane index="1" length="30.48" speed="13.4112"/>
    </edge>
    <edge id="509turn16_16" from="509turn16" to="16" numLanes="4" speed="13.4112"/>
    <edge id="143_16" from="143" to="16" numLanes="3" speed="13.4112">
        <lane index="0" length="51.5112" speed="13.4112"/>
        <lane index="1" length="51.5112" speed="13.4112"/>
        <lane index="2" length="51.5112" speed="13.4112"/>
    </edge>
    <edge id="7203_16" from="7203" to="16" numLanes="1" speed="13.4112">
        <lane index="0" length="53.644800000000004" speed="13.4112"/>
    </edge>
    <edge id="5204_16" from="5204" to="16" numLanes="3" speed="13.4112">
        <lane index="0" length="82.296" speed="13.4112"/>
        <lane index="1" length="82.296" speed="13.4112"/>
        <lane index="2" length="82.296" speed="13.4112"/>
    </edge>
    <edge id="224_224turn17" from="224" to="224turn17" numLanes="2" speed="17.8816">
        <lane index="0" length="65.532" speed="17.8816"/>
        <lane index="1" length="65.532" speed="17.8816"/>
    </edge>
    <edge id="224turn17_17" from="224turn17" to="17" numLanes="6" speed="17.8816"/>
    <edge id="10_10turn17" from="10" to="10turn17" numLanes="2" speed="17.8816">
        <lane index="0" length="64.00800000000001" speed="17.8816"/>
        <lane index="1" length="64.00800000000001" speed="17.8816"/>
    </edge>
    <edge id="10turn17_17" from="10turn17" to="17" numLanes="6" speed="17.8816"/>
    <edge id="317_317turn17" from="317" to="317turn17" numLanes="2" speed="13.4112">
        <lane index="0" length="96.012" speed="13.4112"/>
        <lane index="1" length="96.012" speed="13.4112"/>
    </edge>
    <edge id="317turn17_17" from="317turn17" to="17" numLanes="4" speed="13.4112"/>
    <edge id="496_17" from="496" to="17" numLanes="3" speed="13.4112">
        <lane index="0" length="293.8272" speed="13.4112"/>
        <lane index="1" length="293.8272" speed="13.4112"/>
        <lane index="2" length="293.8272" speed="13.4112"/>
    </edge>
    <edge id="33_33turn18" from="33" to="33turn18" numLanes="2" speed="15.6464">
        <lane index="0" length="36.576" speed="15.6464"/>
        <lane index="1" length="36.576" speed="15.6464"/>
    </edge>
    <edge id="33turn18_18" from="33turn18" to="18" numLanes="4" speed="15.6464"/>
    <edge id="224_18" from="224" to="18" numLanes="5" speed="15.6464">
        <lane index="0" length="540.1056" speed="15.6464"/>
        <lane index="1" length="540.1056" speed="15.6464"/>
        <lane index="2" length="540.1056" speed="15.6464"/>
        <lane index="3" length="540.1056" speed="15.6464"/>
        <lane index="4" length="540.1056" speed="15.6464"/>
    </edge>
    <edge id="21_21turn18" from="21" to="21turn18" numLanes="2" speed="15.6464">
        <lane index="0" length="67.056" speed="15.6464"/>
        <lane index="1" length="67.056" speed="15.6464"/>
    </edge>
    <edge id="21turn18_18" from="21turn18" to="18" numLanes="5" speed="15.6464"/>
    <edge id="5213_5213turn18" from="5213" to="5213turn18" numLanes="2" speed="17.8816">
        <lane index="0" length="64.00800000000001" speed="17.8816"/>
        <lane index="1" length="64.00800000000001" speed="17.8816"/>
    </edge>
    <edge id="5213turn18_18" from="5213turn18" to="18" numLanes="5" speed="17.8816"/>
    <edge id="42_42turn19" from="42" to="42turn19" numLanes="2" speed="20.1168">
        <lane index="0" length="76.2" speed="20.1168"/>
        <lane index="1" length="76.2" speed="20.1168"/>
    </edge>
    <edge id="42turn19_19" from="42turn19" to="19" numLanes="3" speed="20.1168"/>
    <edge id="12_12turn19" from="12" to="12turn19" numLanes="2" speed="20.1168">
        <lane index="0" length="53.34" speed="20.1168"/>
        <lane index="1" length="53.34" speed="20.1168"/>
    </edge>
    <edge id="12turn19_19" from="12turn19" to="19" numLanes="4" speed="20.1168"/>
    <edge id="393_19" from="393" to="19" numLanes="4" speed="13.4112">
        <lane index="0" length="268.224" speed="13.4112"/>
        <lane index="1" length="268.224" speed="13.4112"/>
        <lane index="2" length="268.224" speed="13.4112"/>
        <lane index="3" length="268.224" speed="13.4112"/>
    </edge>
    <edge id="51_51turn20" from="51" to="51turn20" numLanes="2" speed="20.1168">
        <lane index="0" length="57.912000000000006" speed="20.1168"/>
        <lane index="1" length="57.912000000000006" speed="20.1168"/>
    </edge>
    <edge id="51turn20_20" from="51turn20" to="20" numLanes="3" speed="20.1168"/>
    <edge id="42_42turn20" from="42" to="42turn20" numLanes="2" speed="20.1168">
        <lane index="0" length="83.82000000000001" speed="20.1168"/>
        <lane index="1" length="83.82000000000001" speed="20.1168"/>
    </edge>
    <edge id="42turn20_20" from="42turn20" to="20" numLanes="5" speed="20.1168"/>
    <edge id="249_249turn20" from="249" to="249turn20" numLanes="2" speed="17.8816">
        <lane index="0" length="62.484" speed="17.8816"/>
        <lane index="1" length="62.484" speed="17.8816"/>
    </edge>
    <edge id="249turn20_20" from="249turn20" to="20" numLanes="5" speed="17.8816"/>
    <edge id="37_37turn20" from="37" to="37turn20" numLanes="2" speed="17.8816">
        <lane index="0" length="60.96" speed="17.8816"/>
        <lane index="1" length="60.96" speed="17.8816"/>
    </edge>
    <edge id="37turn20_20" from="37turn20" to="20" numLanes="5" speed="17.8816"/>
    <edge id="48_48turn21" from="48" to="48turn21" numLanes="2" speed="13.4112">
        <lane index="0" length="24.384" speed="13.4112"/>
        <lane index="1" length="24.384" speed="13.4112"/>
    </edge>
    <edge id="48turn21_21" from="48turn21" to="21" numLanes="3" speed="13.4112"/>
    <edge id="7005_7005turn21" from="7005" to="7005turn21" numLanes="2" speed="13.4112">
        <lane index="0" length="30.48" speed="13.4112"/>
        <lane index="1" length="30.48" speed="13.4112"/>
    </edge>
    <edge id="7005turn21_21" from="7005turn21" to="21" numLanes="4" speed="13.4112"/>
    <edge id="59_59turn21" from="59" to="59turn21" numLanes="2" speed="15.6464">
        <lane index="0" length="60.96" speed="15.6464"/>
        <lane index="1" length="60.96" speed="15.6464"/>
    </edge>
    <edge id="59turn21_21" from="59turn21" to="21" numLanes="5" speed="15.6464"/>
    <edge id="18_18turn21" from="18" to="18turn21" numLanes="2" speed="15.6464">
        <lane index="0" length="60.96" speed="15.6464"/>
        <lane index="1" length="60.96" speed="15.6464"/>
    </edge>
    <edge id="18turn21_21" from="18turn21" to="21" numLanes="5" speed="15.6464"/>
    <edge id="7009_7009turn22" from="7009" to="7009turn22" numLanes="2" speed="17.8816">
        <lane index="0" length="91.44" speed="17.8816"/>
        <lane index="1" length="91.44" speed="17.8816"/>
    </edge>
    <edge id="7009turn22_22" from="7009turn22" to="22" numLanes="4" speed="17.8816"/>
    <edge id="5217_22" from="5217" to="22" numLanes="3" speed="17.8816">
        <lane index="0" length="52.4256" speed="17.8816"/>
        <lane index="1" length="52.4256" speed="17.8816"/>
        <lane index="2" length="52.4256" speed="17.8816"/>
    </edge>
    <edge id="322_22" from="322" to="22" numLanes="3" speed="17.8816">
        <lane index="0" length="152.4" speed="17.8816"/>
        <lane index="1" length="152.4" speed="17.8816"/>
        <lane index="2" length="152.4" speed="17.8816"/>
    </edge>
    <edge id="5206_5206turn23" from="5206" to="5206turn23" numLanes="2" speed="13.4112">
        <lane index="0" length="45.72" speed="13.4112"/>
        <lane index="1" length="45.72" speed="13.4112"/>
    </edge>
    <edge id="5206turn23_23" from="5206turn23" to="23" numLanes="2" speed="13.4112"/>
    <edge id="509_509turn23" from="509" to="509turn23" numLanes="2" speed="13.4112">
        <lane index="0" length="45.72" speed="13.4112"/>
        <lane index="1" length="45.72" speed="13.4112"/>
    </edge>
    <edge id="509turn23_23" from="509turn23" to="23" numLanes="3" speed="13.4112"/>
    <edge id="7205_7205turn23" from="7205" to="7205turn23" numLanes="2" speed="13.4112">
        <lane index="0" length="6.096" speed="13.4112"/>
        <lane index="1" length="6.096" speed="13.4112"/>
    </edge>
    <edge id="7205turn23_23" from="7205turn23" to="23" numLanes="2" speed="13.4112"/>
    <edge id="27_27turn23" from="27" to="27turn23" numLanes="2" speed="13.4112">
        <lane index="0" length="33.528" speed="13.4112"/>
        <lane index="1" length="33.528" speed="13.4112"/>
    </edge>
    <edge id="27turn23_23" from="27turn23" to="23" numLanes="3" speed="13.4112"/>
    <edge id="36_36turn24" from="36" to="36turn24" numLanes="2" speed="17.8816">
        <lane index="0" length="45.72" speed="17.8816"/>
        <lane index="1" length="45.72" speed="17.8816"/>
    </edge>
    <edge id="36turn24_24" from="36turn24" to="24" numLanes="4" speed="17.8816"/>
    <edge id="13_13turn24" from="13" to="13turn24" numLanes="2" speed="17.8816">
        <lane index="0" length="24.384" speed="17.8816"/>
        <lane index="1" length="24.384" speed="17.8816"/>
    </edge>
    <edge id="13turn24_24" from="13turn24" to="24" numLanes="4" speed="17.8816"/>
    <edge id="7061_7061turn24" from="7061" to="7061turn24" numLanes="2" speed="13.4112">
        <lane index="0" length="18.288" speed="13.4112"/>
        <lane index="1" length="18.288" speed="13.4112"/>
    </edge>
    <edge id="7061turn24_24" from="7061turn24" to="24" numLanes="2" speed="13.4112"/>
    <edge id="7201_7201turn24" from="7201" to="7201turn24" numLanes="2" speed="13.4112">
        <lane index="0" length="9.144" speed="13.4112"/>
        <lane index="1" length="9.144" speed="13.4112"/>
    </edge>
    <edge id="7201turn24_24" from="7201turn24" to="24" numLanes="2" speed="13.4112"/>
    <edge id="395_395turn25" from="395" to="395turn25" numLanes="2" speed="13.4112">
        <lane index="0" length="19.812" speed="13.4112"/>
        <lane index="1" length="19.812" speed="13.4112"/>
    </edge>
    <edge id="395turn25_25" from="395turn25" to="25" numLanes="2" speed="13.4112"/>
    <edge id="396_396turn25" from="396" to="396turn25" numLanes="2" speed="13.4112">
        <lane index="0" length="28.956000000000003" speed="13.4112"/>
        <lane index="1" length="28.956000000000003" speed="13.4112"/>
    </edge>
    <edge id="396turn25_25" from="396turn25" to="25" numLanes="2" speed="13.4112"/>
    <edge id="36_36turn25" from="36" to="36turn25" numLanes="2" speed="17.8816">
        <lane index="0" length="44.196000000000005" speed="17.8816"/>
        <lane index="1" length="44.196000000000005" speed="17.8816"/>
    </edge>
    <edge id="36turn25_25" from="36turn25" to="25" numLanes="3" speed="17.8816"/>
    <edge id="38_38turn25" from="38" to="38turn25" numLanes="2" speed="17.8816">
        <lane index="0" length="44.196000000000005" speed="17.8816"/>
        <lane index="1" length="44.196000000000005" speed="17.8816"/>
    </edge>
    <edge id="38turn25_25" from="38turn25" to="25" numLanes="3" speed="17.8816"/>
    <edge id="30_30turn27" from="30" to="30turn27" numLanes="2" speed="13.4112">
        <lane index="0" length="27.432000000000002" speed="13.4112"/>
        <lane index="1" length="27.432000000000002" speed="13.4112"/>
    </edge>
    <edge id="30turn27_27" from="30turn27" to="27" numLanes="3" speed="13.4112"/>
    <edge id="28_28turn27" from="28" to="28turn27" numLanes="2" speed="13.4112">
        <lane index="0" length="42.672000000000004" speed="13.4112"/>
        <lane index="1" length="42.672000000000004" speed="13.4112"/>
    </edge>
    <edge id="28turn27_27" from="28turn27" to="27" numLanes="3" speed="13.4112"/>
    <edge id="23_23turn27" from="23" to="23turn27" numLanes="2" speed="13.4112">
        <lane index="0" length="30.48" speed="13.4112"/>
        <lane index="1" length="30.48" speed="13.4112"/>
    </edge>
    <edge id="23turn27_27" from="23turn27" to="27" numLanes="3" speed="13.4112"/>
    <edge id="512_512turn27" from="512" to="512turn27" numLanes="2" speed="13.4112">
        <lane index="0" length="30.48" speed="13.4112"/>
        <lane index="1" length="30.48" speed="13.4112"/>
    </edge>
    <edge id="512turn27_27" from="512turn27" to="27" numLanes="2" speed="13.4112"/>
    <edge id="27_27turn28" from="27" to="27turn28" numLanes="2" speed="13.4112">
        <lane index="0" length="15.24" speed="13.4112"/>
        <lane index="1" length="15.24" speed="13.4112"/>
    </edge>
    <edge id="27turn28_28" from="27turn28" to="28" numLanes="2" speed="13.4112"/>
    <edge id="511_511turn28" from="511" to="511turn28" numLanes="2" speed="13.4112">
        <lane index="0" length="15.24" speed="13.4112"/>
        <lane index="1" length="15.24" speed="13.4112"/>
    </edge>
    <edge id="511turn28_28" from="511turn28" to="28" numLanes="2" speed="13.4112"/>
    <edge id="7287_28" from="7287" to="28" numLanes="1" speed="13.4112">
        <lane index="0" length="91.7448" speed="13.4112"/>
    </edge>
    <edge id="511_511turn29" from="511" to="511turn29" numLanes="2" speed="13.4112">
        <lane index="0" length="30.48" speed="13.4112"/>
        <lane index="1" length="30.48" speed="13.4112"/>
    </edge>
    <edge id="511turn29_29" from="511turn29" to="29" numLanes="3" speed="13.4112"/>
    <edge id="7004_29" from="7004" to="29" numLanes="3" speed="13.4112">
        <lane index="0" length="131.6736" speed="13.4112"/>
        <lane index="1" length="131.6736" speed="13.4112"/>
        <lane index="2" length="131.6736" speed="13.4112"/>
    </edge>
    <edge id="5204_5204turn29" from="5204" to="5204turn29" numLanes="2" speed="13.4112">
        <lane index="0" length="42.672000000000004" speed="13.4112"/>
        <lane index="1" length="42.672000000000004" speed="13.4112"/>
    </edge>
    <edge id="5204turn29_29" from="5204turn29" to="29" numLanes="3" speed="13.4112"/>
    <edge id="5205_5205turn29" from="5205" to="5205turn29" numLanes="2" speed="15.6464">
        <lane index="0" length="68.58" speed="15.6464"/>
        <lane index="1" length="68.58" speed="15.6464"/>
    </edge>
    <edge id="5205turn29_29" from="5205turn29" to="29" numLanes="3" speed="15.6464"/>
    <edge id="31_31turn30" from="31" to="31turn30" numLanes="2" speed="13.4112">
        <lane index="0" length="25.908" speed="13.4112"/>
        <lane index="1" length="25.908" speed="13.4112"/>
    </edge>
    <edge id="31turn30_30" from="31turn30" to="30" numLanes="3" speed="13.4112"/>
    <edge id="27_27turn30" from="27" to="27turn30" numLanes="2" speed="13.4112">
        <lane index="0" length="24.384" speed="13.4112"/>
        <lane index="1" length="24.384" speed="13.4112"/>
    </edge>
    <edge id="27turn30_30" from="27turn30" to="30" numLanes="3" speed="13.4112"/>
    <edge id="7215_7215turn30" from="7215" to="7215turn30" numLanes="2" speed="13.4112">
        <lane index="0" length="32.004000000000005" speed="13.4112"/>
        <lane index="1" length="32.004000000000005" speed="13.4112"/>
    </edge>
    <edge id="7215turn30_30" from="7215turn30" to="30" numLanes="2" speed="13.4112"/>
    <edge id="7216_7216turn30" from="7216" to="7216turn30" numLanes="2" speed="13.4112">
        <lane index="0" length="12.192" speed="13.4112"/>
        <lane index="1" length="12.192" speed="13.4112"/>
    </edge>
    <edge id="7216turn30_30" from="7216turn30" to="30" numLanes="2" speed="13.4112"/>
    <edge id="43_43turn31" from="43" to="43turn31" numLanes="2" speed="13.4112">
        <lane index="0" length="15.24" speed="13.4112"/>
        <lane index="1" length="15.24" speed="13.4112"/>
    </edge>
    <edge id="43turn31_31" from="43turn31" to="31" numLanes="3" speed="13.4112"/>
    <edge id="30_30turn31" from="30" to="30turn31" numLanes="2" speed="13.4112">
        <lane index="0" length="15.24" speed="13.4112"/>
        <lane index="1" length="15.24" speed="13.4112"/>
    </edge>