<?xml version="1.0" ?>
<connections>
    <connection from="357_357turn2" to="357turn2_2"/>
    <connection from="357turn2_2" to="2_2turn3" fromLane="0" toLane="0" dir="r"/>
    <connection from="357turn2_2" to="2_2turn101" fromLane="0" toLane="0" dir="s"/>
    <connection from="357turn2_2" to="2_356" fromLane="1" toLane="0" dir="l"/>
    <connection from="101_101turn2" to="101turn2_2"/>
    <connection from="101turn2_2" to="2_356" fromLane="0" toLane="0" dir="r"/>
    <connection from="101turn2_2" to="2_357" fromLane="0" toLane="0" dir="s"/>
    <connection from="101turn2_2" to="2_2turn3" fromLane="1" toLane="1" dir="l"/>
    <connection from="356_356turn2" to="356turn2_2"/>
    <connection from="356turn2_2" to="2_357" fromLane="0" toLane="0" dir="r"/>
    <connection from="356turn2_2" to="2_2turn3" fromLane="0" toLane="0" dir="s"/>
    <connection from="356turn2_2" to="2_2turn101" fromLane="1" toLane="1" dir="l"/>
    <connection from="356turn2_2" to="2_356" fromLane="1" toLane="0" dir="t"/>
    <connection from="3_2" to="2_2turn101" fromLane="0" toLane="0" dir="r"/>
    <connection from="3_2" to="2_356" fromLane="1" toLane="0" dir="s"/>
    <connection from="3_2" to="2_357" fromLane="2" toLane="0" dir="l"/>
    <connection from="3_2" to="2_2turn3" fromLane="2" toLane="1" dir="t"/>
    <connection from="225_225turn3" to="225turn3_3"/>
    <connection from="225turn3_3" to="3_352" fromLane="0" toLane="0" dir="r"/>
    <connection from="225turn3_3" to="3_351" fromLane="0" toLane="0" dir="s"/>
    <connection from="225turn3_3" to="3_351" fromLane="1" toLane="1" dir="s"/>
    <connection from="225turn3_3" to="3_351" fromLane="2" toLane="2" dir="s"/>
    <connection from="225turn3_3" to="3_2" fromLane="3" toLane="1" dir="l"/>
    <connection from="225turn3_3" to="3_2" fromLane="4" toLane="2" dir="l"/>
    <connection from="351_351turn3" to="351turn3_3"/>
    <connection from="351turn3_3" to="3_2" fromLane="0" toLane="0" dir="r"/>
    <connection from="351turn3_3" to="3_3turn225" fromLane="0" toLane="0" dir="s"/>
    <connection from="351turn3_3" to="3_3turn225" fromLane="1" toLane="1" dir="s"/>
    <connection from="351turn3_3" to="3_3turn225" fromLane="2" toLane="1" dir="s"/>
    <connection from="351turn3_3" to="3_352" fromLane="3" toLane="0" dir="l"/>
    <connection from="351turn3_3" to="3_352" fromLane="4" toLane="1" dir="l"/>
    <connection from="2_2turn3" to="2turn3_3"/>
    <connection from="2turn3_3" to="3_3turn225" fromLane="0" toLane="0" dir="r"/>
    <connection from="2turn3_3" to="3_352" fromLane="0" toLane="0" dir="s"/>
    <connection from="2turn3_3" to="3_352" fromLane="1" toLane="1" dir="s"/>
    <connection from="2turn3_3" to="3_351" fromLane="2" toLane="2" dir="l"/>
    <connection from="2turn3_3" to="3_2" fromLane="2" toLane="2" dir="t"/>
    <connection from="352_352turn3" to="352turn3_3"/>
    <connection from="352turn3_3" to="3_351" fromLane="0" toLane="0" dir="r"/>
    <connection from="352turn3_3" to="3_2" fromLane="0" toLane="0" dir="s"/>
    <connection from="352turn3_3" to="3_2" fromLane="1" toLane="1" dir="s"/>
    <connection from="352turn3_3" to="3_3turn225" fromLane="2" toLane="1" dir="l"/>
    <connection from="352turn3_3" to="3_352" fromLane="2" toLane="1" dir="t"/>
    <connection from="411_4" to="4_377" fromLane="0" toLane="0" dir="r"/>
    <connection from="411_4" to="4_377" fromLane="1" toLane="1" dir="r"/>
    <connection from="411_4" to="4_378" fromLane="2" toLane="0" dir="s"/>
    <connection from="503_503turn5" to="503turn5_5"/>
    <connection from="503turn5_5" to="5_313" fromLane="0" toLane="0" dir="r"/>
    <connection from="503turn5_5" to="5_312" fromLane="1" toLane="0" dir="s"/>
    <connection from="503turn5_5" to="5_312" fromLane="2" toLane="1" dir="s"/>
    <connection from="503turn5_5" to="5_312" fromLane="3" toLane="2" dir="s"/>
    <connection from="503turn5_5" to="5_284" fromLane="4" toLane="0" dir="l"/>
    <connection from="312_312turn5" to="312turn5_5"/>
    <connection from="312turn5_5" to="5_284" fromLane="0" toLane="0" dir="r"/>
    <connection from="312turn5_5" to="5_5turn503" fromLane="1" toLane="0" dir="s"/>
    <connection from="312turn5_5" to="5_5turn503" fromLane="2" toLane="1" dir="s"/>
    <connection from="312turn5_5" to="5_5turn503" fromLane="3" toLane="1" dir="s"/>
    <connection from="312turn5_5" to="5_313" fromLane="4" toLane="1" dir="l"/>
    <connection from="284_284turn5" to="284turn5_5"/>
    <connection from="284turn5_5" to="5_5turn503" fromLane="0" toLane="0" dir="r"/>
    <connection from="284turn5_5" to="5_313" fromLane="0" toLane="0" dir="s"/>
    <connection from="284turn5_5" to="5_313" fromLane="1" toLane="1" dir="s"/>
    <connection from="284turn5_5" to="5_312" fromLane="2" toLane="2" dir="l"/>
    <connection from="284turn5_5" to="5_284" fromLane="2" toLane="0" dir="t"/>
    <connection from="313_313turn5" to="313turn5_5"/>
    <connection from="313turn5_5" to="5_312" fromLane="0" toLane="0" dir="r"/>
    <connection from="313turn5_5" to="5_284" fromLane="1" toLane="0" dir="s"/>
    <connection from="313turn5_5" to="5_5turn503" fromLane="2" toLane="0" dir="l"/>
    <connection from="313turn5_5" to="5_5turn503" fromLane="3" toLane="1" dir="l"/>
    <connection from="313turn5_5" to="5_313" fromLane="3" toLane="1" dir="t"/>
    <connection from="7002_7002turn6" to="7002turn6_6"/>
    <connection from="7002turn6_6" to="6_343" fromLane="0" toLane="0" dir="r"/>
    <connection from="7002turn6_6" to="6_6turn306" fromLane="1" toLane="0" dir="s"/>
    <connection from="7002turn6_6" to="6_6turn306" fromLane="2" toLane="1" dir="s"/>
    <connection from="7002turn6_6" to="6_6turn306" fromLane="3" toLane="1" dir="s"/>
    <connection from="7002turn6_6" to="6_6turn306" fromLane="4" toLane="1" dir="s"/>
    <connection from="306_306turn6" to="306turn6_6"/>
    <connection from="306turn6_6" to="6_7002" fromLane="0" toLane="0" dir="s"/>
    <connection from="306turn6_6" to="6_7002" fromLane="1" toLane="1" dir="s"/>
    <connection from="306turn6_6" to="6_7002" fromLane="2" toLane="2" dir="s"/>
    <connection from="306turn6_6" to="6_343" fromLane="3" toLane="0" dir="l"/>
    <connection from="306turn6_6" to="6_343" fromLane="4" toLane="1" dir="l"/>
    <connection from="339_6" to="6_7002" fromLane="0" toLane="0" dir="r"/>
    <connection from="339_6" to="6_343" fromLane="1" toLane="0" dir="s"/>
    <connection from="339_6" to="6_343" fromLane="2" toLane="1" dir="s"/>
    <connection from="339_6" to="6_6turn306" fromLane="3" toLane="1" dir="l"/>
    <connection from="10_10turn7" to="10turn7_7"/>
    <connection from="10turn7_7" to="7_326" fromLane="0" toLane="0" dir="r"/>
    <connection from="10turn7_7" to="7_7turn225" fromLane="0" toLane="0" dir="s"/>
    <connection from="10turn7_7" to="7_7turn225" fromLane="1" toLane="1" dir="s"/>
    <connection from="10turn7_7" to="7_7turn225" fromLane="2" toLane="1" dir="s"/>
    <connection from="10turn7_7" to="7_484" fromLane="3" toLane="0" dir="l"/>
    <connection from="225_225turn7" to="225turn7_7"/>
    <connection from="225turn7_7" to="7_484" fromLane="0" toLane="0" dir="r"/>
    <connection from="225turn7_7" to="7_7turn10" fromLane="0" toLane="0" dir="s"/>
    <connection from="225turn7_7" to="7_7turn10" fromLane="1" toLane="1" dir="s"/>
    <connection from="225turn7_7" to="7_7turn10" fromLane="2" toLane="1" dir="s"/>
    <connection from="225turn7_7" to="7_326" fromLane="3" toLane="0" dir="l"/>
    <connection from="484_484turn7" to="484turn7_7"/>
    <connection from="484turn7_7" to="7_7turn10" fromLane="0" toLane="0" dir="r"/>
    <connection from="484turn7_7" to="7_326" fromLane="1" toLane="0" dir="s"/>
    <connection from="484turn7_7" to="7_7turn225" fromLane="2" toLane="1" dir="l"/>
    <connection from="484turn7_7" to="7_484" fromLane="2" toLane="0" dir="t"/>
    <connection from="326_326turn7" to="326turn7_7"/>
    <connection from="326turn7_7" to="7_7turn225" fromLane="0" toLane="0" dir="r"/>
    <connection from="326turn7_7" to="7_484" fromLane="1" toLane="0" dir="s"/>
    <connection from="326turn7_7" to="7_7turn10" fromLane="2" toLane="1" dir="l"/>
    <connection from="326turn7_7" to="7_326" fromLane="2" toLane="0" dir="t"/>
    <connection from="329_329turn8" to="329turn8_8"/>
    <connection from="329turn8_8" to="8_320" fromLane="0" toLane="0" dir="r"/>
    <connection from="329turn8_8" to="8_314" fromLane="1" toLane="0" dir="s"/>
    <connection from="329turn8_8" to="8_314" fromLane="2" toLane="1" dir="s"/>
    <connection from="329turn8_8" to="8_507" fromLane="3" toLane="0" dir="l"/>
    <connection from="329turn8_8" to="8_507" fromLane="4" toLane="1" dir="l"/>
    <connection from="314_314turn8" to="314turn8_8"/>
    <connection from="314turn8_8" to="8_507" fromLane="0" toLane="0" dir="r"/>
    <connection from="314turn8_8" to="8_329" fromLane="1" toLane="0" dir="s"/>
    <connection from="314turn8_8" to="8_329" fromLane="2" toLane="1" dir="s"/>
    <connection from="314turn8_8" to="8_320" fromLane="3" toLane="1" dir="l"/>
    <connection from="314turn8_8" to="8_320" fromLane="4" toLane="2" dir="l"/>
    <connection from="507_507turn8" to="507turn8_8"/>
    <connection from="507turn8_8" to="8_329" fromLane="0" toLane="0" dir="r"/>
    <connection from="507turn8_8" to="8_320" fromLane="1" toLane="0" dir="s"/>
    <connection from="507turn8_8" to="8_320" fromLane="2" toLane="1" dir="s"/>
    <connection from="507turn8_8" to="8_314" fromLane="3" toLane="0" dir="l"/>
    <connection from="507turn8_8" to="8_314" fromLane="4" toLane="1" dir="l"/>
    <connection from="507turn8_8" to="8_507" fromLane="4" toLane="1" dir="t"/>
    <connection from="320_320turn8" to="320turn8_8"/>
    <connection from="320turn8_8" to="8_314" fromLane="0" toLane="0" dir="r"/>
    <connection from="320turn8_8" to="8_507" fromLane="0" toLane="0" dir="s"/>
    <connection from="320turn8_8" to="8_507" fromLane="1" toLane="1" dir="s"/>
    <connection from="320turn8_8" to="8_329" fromLane="2" toLane="0" dir="l"/>
    <connection from="320turn8_8" to="8_329" fromLane="3" toLane="1" dir="l"/>
    <connection from="320turn8_8" to="8_320" fromLane="3" toLane="2" dir="t"/>
    <connection from="349_349turn9" to="349turn9_9"/>
    <connection from="349turn9_9" to="9_9turn10" fromLane="0" toLane="0" dir="r"/>
    <connection from="349turn9_9" to="9_350" fromLane="0" toLane="0" dir="s"/>
    <connection from="349turn9_9" to="9_350" fromLane="1" toLane="1" dir="s"/>
    <connection from="349turn9_9" to="9_319" fromLane="2" toLane="1" dir="l"/>
    <connection from="350_350turn9" to="350turn9_9"/>
    <connection from="350turn9_9" to="9_319" fromLane="0" toLane="0" dir="r"/>
    <connection from="350turn9_9" to="9_349" fromLane="1" toLane="0" dir="s"/>
    <connection from="350turn9_9" to="9_9turn10" fromLane="2" toLane="1" dir="l"/>
    <connection from="319_319turn9" to="319turn9_9"/>
    <connection from="319turn9_9" to="9_349" fromLane="0" toLane="0" dir="r"/>
    <connection from="319turn9_9" to="9_9turn10" fromLane="0" toLane="0" dir="s"/>
    <connection from="319turn9_9" to="9_9turn10" fromLane="1" toLane="1" dir="s"/>
    <connection from="319turn9_9" to="9_350" fromLane="2" toLane="0" dir="l"/>
    <connection from="319turn9_9" to="9_350" fromLane="3" toLane="1" dir="l"/>
    <connection from="319turn9_9" to="9_319" fromLane="3" toLane="1" dir="t"/>
    <connection from="10_10turn9" to="10turn9_9"/>
    <connection from="10turn9_9" to="9_350" fromLane="0" toLane="0" dir="r"/>
    <connection from="10turn9_9" to="9_319" fromLane="0" toLane="0" dir="s"/>
    <connection from="10turn9_9" to="9_319" fromLane="1" toLane="1" dir="s"/>
    <connection from="10turn9_9" to="9_349" fromLane="2" toLane="0" dir="l"/>
    <connection from="10turn9_9" to="9_9turn10" fromLane="2" toLane="1" dir="t"/>
    <connection from="17_17turn10" to="17turn10_10"/>
    <connection from="17turn10_10" to="10_10turn11" fromLane="0" toLane="0" dir="r"/>
    <connection from="17turn10_10" to="10_10turn7" fromLane="0" toLane="0" dir="s"/>
    <connection from="17turn10_10" to="10_10turn7" fromLane="1" toLane="1" dir="s"/>
    <connection from="17turn10_10" to="10_10turn7" fromLane="2" toLane="1" dir="s"/>
    <connection from="17turn10_10" to="10_10turn9" fromLane="3" toLane="0" dir="l"/>
    <connection from="17turn10_10" to="10_10turn9" fromLane="4" toLane="1" dir="l"/>
    <connection from="7_7turn10" to="7turn10_10"/>
    <connection from="7turn10_10" to="10_10turn9" fromLane="0" toLane="0" dir="r"/>
    <connection from="7turn10_10" to="10_10turn17" fromLane="0" toLane="0" dir="s"/>
    <connection from="7turn10_10" to="10_10turn17" fromLane="1" toLane="1" dir="s"/>
    <connection from="7turn10_10" to="10_10turn17" fromLane="2" toLane="1" dir="s"/>
    <connection from="7turn10_10" to="10_10turn11" fromLane="3" toLane="0" dir="l"/>
    <connection from="7turn10_10" to="10_10turn11" fromLane="4" toLane="1" dir="l"/>
    <connection from="9_9turn10" to="9turn10_10"/>
    <connection from="9turn10_10" to="10_10turn17" fromLane="0" toLane="0" dir="r"/>
    <connection from="9turn10_10" to="10_10turn11" fromLane="1" toLane="0" dir="s"/>
    <connection from="9turn10_10" to="10_10turn11" fromLane="2" toLane="1" dir="s"/>
    <connection from="9turn10_10" to="10_10turn7" fromLane="3" toLane="0" dir="l"/>
    <connection from="9turn10_10" to="10_10turn7" fromLane="4" toLane="1" dir="l"/>
    <connection from="9turn10_10" to="10_10turn9" fromLane="4" toLane="1" dir="t"/>
    <connection from="11_11turn10" to="11turn10_10"/>
    <connection from="11turn10_10" to="10_10turn7" fromLane="0" toLane="0" dir="r"/>
    <connection from="11turn10_10" to="10_10turn9" fromLane="1" toLane="0" dir="s"/>
    <connection from="11turn10_10" to="10_10turn9" fromLane="2" toLane="1" dir="s"/>
    <connection from="11turn10_10" to="10_10turn17" fromLane="3" toLane="0" dir="l"/>
    <connection from="11turn10_10" to="10_10turn17" fromLane="4" toLane="1" dir="l"/>
    <connection from="11turn10_10" to="10_10turn11" fromLane="4" toLane="1" dir="t"/>
    <connection from="173_173turn11" to="173turn11_11"/>
    <connection from="173turn11_11" to="11_12" fromLane="0" toLane="0" dir="r"/>
    <connection from="173turn11_11" to="11_327" fromLane="0" toLane="0" dir="s"/>
    <connection from="173turn11_11" to="11_11turn10" fromLane="1" toLane="1" dir="l"/>
    <connection from="327_327turn11" to="327turn11_11"/>
    <connection from="327turn11_11" to="11_11turn10" fromLane="0" toLane="0" dir="r"/>
    <connection from="327turn11_11" to="11_173" fromLane="0" toLane="0" dir="s"/>
    <connection from="327turn11_11" to="11_12" fromLane="1" toLane="2" dir="l"/>
    <connection from="10_10turn11" to="10turn11_11"/>
    <connection from="10turn11_11" to="11_173" fromLane="0" toLane="0" dir="r"/>
    <connection from="10turn11_11" to="11_12" fromLane="0" toLane="0" dir="s"/>
    <connection from="10turn11_11" to="11_12" fromLane="1" toLane="1" dir="s"/>
    <connection from="10turn11_11" to="11_327" fromLane="2" toLane="0" dir="l"/>
    <connection from="10turn11_11" to="11_11turn10" fromLane="2" toLane="1" dir="t"/>
    <connection from="12_12turn11" to="12turn11_11"/>
    <connection from="12turn11_11" to="11_327" fromLane="0" toLane="0" dir="r"/>
    <connection from="12turn11_11" to="11_11turn10" fromLane="0" toLane="0" dir="s"/>
    <connection from="12turn11_11" to="11_11turn10" fromLane="1" toLane="1" dir="s"/>
    <connection from="12turn11_11" to="11_173" fromLane="2" toLane="0" dir="l"/>
    <connection from="12turn11_11" to="11_12" fromLane="2" toLane="2" dir="t"/>
    <connection from="19_19turn12" to="19turn12_12"/>
    <connection from="19turn12_12" to="12_328" fromLane="0" toLane="0" dir="s"/>
    <connection from="19turn12_12" to="12_328" fromLane="1" toLane="1" dir="s"/>
    <connection from="19turn12_12" to="12_328" fromLane="2" toLane="2" dir="s"/>
    <connection from="19turn12_12" to="12_12turn11" fromLane="3" toLane="1" dir="l"/>
    <connection from="328_12" to="12_12turn11" fromLane="0" toLane="0" dir="r"/>
    <connection from="328_12" to="12_12turn19" fromLane="0" toLane="0" dir="s"/>
    <connection from="328_12" to="12_12turn19" fromLane="1" toLane="1" dir="s"/>
    <connection from="328_12" to="12_12turn19" fromLane="2" toLane="1" dir="s"/>
    <connection from="11_12" to="12_12turn19" fromLane="0" toLane="0" dir="r"/>
    <connection from="11_12" to="12_328" fromLane="1" toLane="1" dir="l"/>
    <connection from="11_12" to="12_328" fromLane="2" toLane="2" dir="l"/>
    <connection from="11_12" to="12_12turn11" fromLane="2" toLane="1" dir="t"/>
    <connection from="24_24turn13" to="24turn13_13"/>
    <connection from="24turn13_13" to="13_486" fromLane="0" toLane="0" dir="r"/>
    <connection from="24turn13_13" to="13_7002" fromLane="1" toLane="0" dir="s"/>
    <connection from="24turn13_13" to="13_7002" fromLane="2" toLane="1" dir="s"/>
    <connection from="24turn13_13" to="13_7002" fromLane="3" toLane="2" dir="s"/>
    <connection from="24turn13_13" to="13_7001" fromLane="4" toLane="0" dir="l"/>
    <connection from="24turn13_13" to="13_7001" fromLane="5" toLane="1" dir="l"/>
    <connection from="7002_7002turn13" to="7002turn13_13"/>
    <connection from="7002turn13_13" to="13_7001" fromLane="0" toLane="0" dir="r"/>
    <connection from="7002turn13_13" to="13_13turn24" fromLane="1" toLane="0" dir="s"/>
    <connection from="7002turn13_13" to="13_13turn24" fromLane="2" toLane="1" dir="s"/>
    <connection from="7002turn13_13" to="13_13turn24" fromLane="3" toLane="1" dir="s"/>
    <connection from="7002turn13_13" to="13_486" fromLane="4" toLane="0" dir="l"/>
    <connection from="7002turn13_13" to="13_486" fromLane="5" toLane="1" dir="l"/>
    <connection from="7001_7001turn13" to="7001turn13_13"/>
    <connection from="7001turn13_13" to="13_13turn24" fromLane="0" toLane="0" dir="r"/>
    <connection from="7001turn13_13" to="13_486" fromLane="1" toLane="0" dir="s"/>
    <connection from="7001turn13_13" to="13_486" fromLane="2" toLane="1" dir="s"/>
    <connection from="7001turn13_13" to="13_7002" fromLane="3" toLane="1" dir="l"/>
    <connection from="7001turn13_13" to="13_7002" fromLane="4" toLane="2" dir="l"/>
    <connection from="7001turn13_13" to="13_7001" fromLane="4" toLane="1" dir="t"/>
    <connection from="486_486turn13" to="486turn13_13"/>
    <connection from="486turn13_13" to="13_7002" fromLane="0" toLane="0" dir="r"/>
    <connection from="486turn13_13" to="13_7001" fromLane="1" toLane="0" dir="s"/>
    <connection from="486turn13_13" to="13_7001" fromLane="2" toLane="1" dir="s"/>
    <connection from="486turn13_13" to="13_13turn24" fromLane="3" toLane="0" dir="l"/>
    <connection from="486turn13_13" to="13_13turn24" fromLane="4" toLane="1" dir="l"/>
    <connection from="486turn13_13" to="13_486" fromLane="4" toLane="1" dir="t"/>
    <connection from="5230_5230turn14" to="5230turn14_14"/>
    <connection from="5230turn14_14" to="14_14turn247" fromLane="0" toLane="0" dir="r"/>
    <connection from="5230turn14_14" to="14_7003" fromLane="0" toLane="0" dir="s"/>
    <connection from="5230turn14_14" to="14_486" fromLane="1" toLane="1" dir="l"/>
    <connection from="7003_7003turn14" to="7003turn14_14"/>
    <connection from="7003turn14_14" to="14_486" fromLane="0" toLane="0" dir="r"/>
    <connection from="7003turn14_14" to="14_5230" fromLane="1" toLane="0" dir="s"/>
    <connection from="7003turn14_14" to="14_14turn247" fromLane="2" toLane="1" dir="l"/>
    <connection from="486_486turn14" to="486turn14_14"/>
    <connection from="486turn14_14" to="14_5230" fromLane="0" toLane="0" dir="r"/>
    <connection from="486turn14_14" to="14_14turn247" fromLane="1" toLane="0" dir="s"/>
    <connection from="486turn14_14" to="14_14turn247" fromLane="2" toLane="1" dir="s"/>
    <connection from="486turn14_14" to="14_7003" fromLane="3" toLane="0" dir="l"/>
    <connection from="486turn14_14" to="14_486" fromLane="3" toLane="1" dir="t"/>
    <connection from="247_247turn14" to="247turn14_14"/>
    <connection from="247turn14_14" to="14_7003" fromLane="0" toLane="0" dir="r"/>
    <connection from="247turn14_14" to="14_486" fromLane="0" toLane="0" dir="s"/>
    <connection from="247turn14_14" to="14_486" fromLane="1" toLane="1" dir="s"/>
    <connection from="247turn14_14" to="14_5230" fromLane="2" toLane="0" dir="l"/>
    <connection from="247turn14_14" to="14_14turn247" fromLane="2" toLane="1" dir="t"/>
    <connection from="509_509turn16" to="509turn16_16"/>
    <connection from="509turn16_16" to="16_5204" fromLane="0" toLane="0" dir="r"/>
    <connection from="509turn16_16" to="16_143" fromLane="1" toLane="0" dir="s"/>
    <connection from="509turn16_16" to="16_143" fromLane="2" toLane="1" dir="s"/>
    <connection from="509turn16_16" to="16_7203" fromLane="3" toLane="0" dir="l"/>
    <connection from="143_16" to="16_7203" fromLane="0" toLane="0" dir="r"/>
    <connection from="143_16" to="16_16turn509" fromLane="0" toLane="0" dir="s"/>
    <connection from="143_16" to="16_5204" fromLane="1" toLane="0" dir="l"/>
    <connection from="143_16" to="16_5204" fromLane="2" toLane="1" dir="l"/>
    <connection from="7203_16" to="16_16turn509" fromLane="0" toLane="0" dir="r"/>
    <connection from="7203_16" to="16_5204" fromLane="0" toLane="0" dir="s"/>
    <connection from="7203_16" to="16_143" fromLane="0" toLane="1" dir="l"/>
    <connection from="7203_16" to="16_7203" fromLane="0" toLane="0" dir="t"/>
    <connection from="5204_16" to="16_143" fromLane="0" toLane="0" dir="r"/>
    <connection from="5204_16" to="16_143" fromLane="1" toLane="1" dir="r"/>
    <connection from="5204_16" to="16_7203" fromLane="2" toLane="0" dir="s"/>
    <connection from="5204_16" to="16_16turn509" fromLane="2" toLane="1" dir="l"/>
    <connection from="5204_16" to="16_5204" fromLane="2" toLane="1" dir="t"/>
    <connection from="224_224turn17" to="224turn17_17"/>
    <connection from="224turn17_17" to="17_496" fromLane="0" toLane="0" dir="r"/>
    <connection from="224turn17_17" to="17_17turn10" fromLane="1" toLane="0" dir="s"/>
    <connection from="224turn17_17" to="17_17turn10" fromLane="2" toLane="1" dir="s"/>
    <connection from="224turn17_17" to="17_17turn10" fromLane="3" toLane="1" dir="s"/>
    <connection from="224turn17_17" to="17_317" fromLane="4" toLane="0" dir="l"/>
    <connection from="224turn17_17" to="17_317" fromLane="5" toLane="1" dir="l"/>
    <connection from="10_10turn17" to="10turn17_17"/>
    <connection from="10turn17_17" to="17_317" fromLane="0" toLane="0" dir="r"/>
    <connection from="10turn17_17" to="17_17turn224" fromLane="1" toLane="0" dir="s"/>
    <connection from="10turn17_17" to="17_17turn224" fromLane="2" toLane="1" dir="s"/>
    <connection from="10turn17_17" to="17_17turn224" fromLane="3" toLane="1" dir="s"/>
    <connection from="10turn17_17" to="17_496" fromLane="4" toLane="0" dir="l"/>
    <connection from="10turn17_17" to="17_496" fromLane="5" toLane="1" dir="l"/>
    <connection from="317_317turn17" to="317turn17_17"/>
    <connection from="317turn17_17" to="17_17turn224" fromLane="0" toLane="0" dir="r"/>
    <connection from="317turn17_17" to="17_496" fromLane="1" toLane="0" dir="s"/>
    <connection from="317turn17_17" to="17_17turn10" fromLane="2" toLane="0" dir="l"/>
    <connection from="317turn17_17" to="17_17turn10" fromLane="3" toLane="1" dir="l"/>
    <connection from="317turn17_17" to="17_317" fromLane="3" toLane="1" dir="t"/>
    <connection from="496_17" to="17_17turn10" fromLane="0" toLane="0" dir="r"/>
    <connection from="496_17" to="17_17turn224" fromLane="1" toLane="0" dir="l"/>
    <connection from="496_17" to="17_17turn224" fromLane="2" toLane="1" dir="l"/>
    <connection from="496_17" to="17_496" fromLane="2" toLane="1" dir="t"/>
    <connection from="33_33turn18" to="33turn18_18"/>
    <connection from="33turn18_18" to="18_5213" fromLane="0" toLane="0" dir="r"/>
    <connection from="33turn18_18" to="18_18turn224" fromLane="0" toLane="0" dir="s"/>
    <connection from="33turn18_18" to="18_18turn224" fromLane="1" toLane="1" dir="s"/>
    <connection from="33turn18_18" to="18_18turn224" fromLane="2" toLane="1" dir="s"/>
    <connection from="33turn18_18" to="18_18turn21" fromLane="3" toLane="1" dir="l"/>
    <connection from="224_18" to="18_18turn21" fromLane="0" toLane="0" dir="r"/>
    <connection from="224_18" to="18_18turn33" fromLane="1" toLane="0" dir="s"/>
    <connection from="224_18" to="18_18turn33" fromLane="2" toLane="1" dir="s"/>
    <connection from="224_18" to="18_18turn33" fromLane="3" toLane="1" dir="s"/>
    <connection from="224_18" to="18_5213" fromLane="4" toLane="1" dir="l"/>
    <connection from="21_21turn18" to="21turn18_18"/>
    <connection from="21turn18_18" to="18_18turn33" fromLane="0" toLane="0" dir="r"/>
    <connection from="21turn18_18" to="18_5213" fromLane="1" toLane="0" dir="s"/>
    <connection from="21turn18_18" to="18_5213" fromLane="2" toLane="1" dir="s"/>
    <connection from="21turn18_18" to="18_18turn224" fromLane="3" toLane="0" dir="l"/>
    <connection from="21turn18_18" to="18_18turn224" fromLane="4" toLane="1" dir="l"/>
    <connection from="21turn18_18" to="18_18turn21" fromLane="4" toLane="1" dir="t"/>
    <connection from="5213_5213turn18" to="5213turn18_18"/>
    <connection from="5213turn18_18" to="18_18turn224" fromLane="0" toLane="0" dir="r"/>
    <connection from="5213turn18_18" to="18_18turn21" fromLane="1" toLane="0" dir="s"/>
    <connection from="5213turn18_18" to="18_18turn21" fromLane="2" toLane="1" dir="s"/>
    <connection from="5213turn18_18" to="18_18turn33" fromLane="3" toLane="0" dir="l"/>
    <connection from="5213turn18_18" to="18_18turn33" fromLane="4" toLane="1" dir="l"/>
    <connection from="5213turn18_18" to="18_5213" fromLane="4" toLane="1" dir="t"/>
    <connection from="42_42turn19" to="42turn19_19"/>
    <connection from="42turn19_19" to="19_19turn12" fromLane="0" toLane="0" dir="s"/>
    <connection from="42turn19_19" to="19_19turn12" fromLane="1" toLane="1" dir="s"/>
    <connection from="42turn19_19" to="19_393" fromLane="2" toLane="0" dir="l"/>
    <connection from="12_12turn19" to="12turn19_19"/>
    <connection from="12turn19_19" to="19_393" fromLane="0" toLane="0" dir="r"/>
    <connection from="12turn19_19" to="19_19turn42" fromLane="1" toLane="0" dir="s"/>
    <connection from="12turn19_19" to="19_19turn42" fromLane="2" toLane="1" dir="s"/>
    <connection from="12turn19_19" to="19_19turn42" fromLane="3" toLane="1" dir="s"/>
    <connection from="393_19" to="19_19turn42" fromLane="0" toLane="0" dir="r"/>
    <connection from="393_19" to="19_19turn42" fromLane="1" toLane="1" dir="r"/>
    <connection from="393_19" to="19_19turn12" fromLane="2" toLane="0" dir="l"/>
    <connection from="393_19" to="19_19turn12" fromLane="3" toLane="1" dir="l"/>
    <connection from="393_19" to="19_393" fromLane="3" toLane="0" dir="t"/>
    <connection from="51_51turn20" to="51turn20_20"/>
    <connection from="51turn20_20" to="20_20turn37" fromLane="0" toLane="0" dir="r"/>
    <connection from="51turn20_20" to="20_20turn42" fromLane="0" toLane="0" dir="s"/>
    <connection from="51turn20_20" to="20_20turn42" fromLane="1" toLane="1" dir="s"/>
    <connection from="51turn20_20" to="20_20turn249" fromLane="2" toLane="1" dir="l"/>
    <connection from="42_42turn20" to="42turn20_20"/>
    <connection from="42turn20_20" to="20_20turn249" fromLane="0" toLane="0" dir="r"/>
    <connection from="42turn20_20" to="20_20turn51" fromLane="0" toLane="0" dir="s"/>
    <connection from="42turn20_20" to="20_20turn51" fromLane="1" toLane="1" dir="s"/>
    <connection from="42turn20_20" to="20_20turn51" fromLane="2" toLane="1" dir="s"/>
    <connection from="42turn20_20" to="20_20turn37" fromLane="3" toLane="0" dir="l"/>
    <connection from="42turn20_20" to="20_20turn37" fromLane="4" toLane="1" dir="l"/>
    <connection from="249_249turn20" to="249turn20_20"/>
    <connection from="249turn20_20" to="20_20turn51" fromLane="0" toLane="0" dir="r"/>
    <connection from="249turn20_20" to="20_20turn37" fromLane="1" toLane="0" dir="s"/>
    <connection from="249turn20_20" to="20_20turn37" fromLane="2" toLane="1" dir="s"/>
    <connection from="249turn20_20" to="20_20turn42" fromLane="3" toLane="0" dir="l"/>
    <connection from="249turn20_20" to="20_20turn42" fromLane="4" toLane="1" dir="l"/>
    <connection from="249turn20_20" to="20_20turn249" fromLane="4" toLane="1" dir="t"/>
    <connection from="37_37turn20" to="37turn20_20"/>
    <connection from="37turn20_20" to="20_20turn42" fromLane="0" toLane="0" dir="r"/>
    <connection from="37turn20_20" to="20_20turn249" fromLane="1" toLane="0" dir="s"/>
    <connection from="37turn20_20" to="20_20turn249" fromLane="2" toLane="1" dir="s"/>
    <connection from="37turn20_20" to="20_20turn51" fromLane="3" toLane="0" dir="l"/>
    <connection from="37turn20_20" to="20_20turn51" fromLane="4" toLane="1" dir="l"/>
    <connection from="37turn20_20" to="20_20turn37" fromLane="4" toLane="1" dir="t"/>
    <connection from="48_48turn21" to="48turn21_21"/>
    <connection from="48turn21_21" to="21_21turn18" fromLane="0" toLane="0" dir="r"/>
    <connection from="48turn21_21" to="21_7005" fromLane="0" toLane="0" dir="s"/>
    <connection from="48turn21_21" to="21_7005" fromLane="1" toLane="1" dir="s"/>
    <connection from="48turn21_21" to="21_59" fromLane="2" toLane="3" dir="l"/>
    <connection from="7005_7005turn21" to="7005turn21_21"/>
    <connection from="7005turn21_21" to="21_59" fromLane="0" toLane="0" dir="r"/>
    <connection from="7005turn21_21" to="21_48" fromLane="0" toLane="0" dir="s"/>
    <connection from="7005turn21_21" to="21_48" fromLane="1" toLane="1" dir="s"/>
    <connection from="7005turn21_21" to="21_21turn18" fromLane="2" toLane="0" dir="l"/>
    <connection from="7005turn21_21" to="21_21turn18" fromLane="3" toLane="1" dir="l"/>
    <connection from="59_59turn21" to="59turn21_21"/>