<?xml version="1.0" encoding="UTF-8"?>

<!-- generated on 2025-04-23 16:14:29.120107 by randomTrips.py v1_21_0+0000-d7b3b481c43
<configuration>
    <net-file value="c:/Users/xh8/ornl_work/github_workspace/utdf2gmns/datasets/data_Tempe_network_1/utdf_to_sumo/utdf_to_sumo.net.xml"/>
    <route-file value="c:/Users/xh8/ornl_work/github_workspace/utdf2gmns/datasets/data_Tempe_network_1/utdf_to_sumo/utdf_to_sumo.rou.xml"/>
</configuration>
-->

<!-- generated on 2025-04-23 16:14:28 by Eclipse SUMO duarouter Version 1.21.0
<duarouterConfiguration xmlns:xsi="http://www.w3.org/2001/XMLSchema-instance" xsi:noNamespaceSchemaLocation="http://sumo.dlr.de/xsd/duarouterConfiguration.xsd">

    <input>
        <net-file value="c:/Users/xh8/ornl_work/github_workspace/utdf2gmns/datasets/data_Tempe_network_1/utdf_to_sumo/utdf_to_sumo.net.xml"/>
        <route-files value="trips.trips.xml"/>
    </input>

    <output>
        <output-file value="c:/Users/xh8/ornl_work/github_workspace/utdf2gmns/datasets/data_Tempe_network_1/utdf_to_sumo/utdf_to_sumo.rou.xml"/>
        <alternatives-output value="NUL"/>
    </output>

    <time>
        <begin value="0"/>
        <end value="3600"/>
    </time>

    <report>
        <no-warnings value="true"/>
        <ignore-errors value="true"/>
        <no-step-log value="true"/>
    </report>

</duarouterConfiguration>
-->

<routes xmlns:xsi="http://www.w3.org/2001/XMLSchema-instance" xsi:noNamespaceSchemaLocation="http://sumo.dlr.de/xsd/routes_file.xsd">
    <vehicle id="0" depart="0.00">
        <route edges="516turn49_49 49_49turn516 49turn516_516 516_47 47_46 46_46turn45 46turn45_45 45_45turn44 45turn44_44 44_44turn43 44turn43_43 43_43turn41 43turn41_41 41_40 40_39 39_39turn38 39turn38_38 38_38turn25 38turn25_25 25_25turn36 25turn36_36 36_5232 5232_5232turn69 5232turn69_69 69_69turn68 69turn68_68 68_68turn86 68turn86_86 86_86turn104 86turn104_104 104_104turn109 104turn109_109 109_478"/>
    </vehicle>
    <vehicle id="1" depart="1.00">
        <route edges="228turn746_746 746_746turn228 746turn228_228 228_228turn229 228turn229_229 229_481 481_481turn226 481turn226_226 226_226turn221 226turn221_221 221_221turn204 221turn204_204 204_406 406_406turn171 406turn171_171 171_161 161_196 196_196turn180 196turn180_180 180_180turn181 180turn181_181 181_181turn183 181turn183_183 183_183turn184 183turn184_184 184_184turn186 184turn186_186"/>
    </vehicle>
    <vehicle id="2" depart="2.00">
        <route edges="5268_5268turn139 5268turn139_139 139_139turn124 139turn124_124 124_124turn111 124turn111_111 111_111turn117 111turn117_117 117_117turn91 117turn91_91 91_91turn71 91turn71_71 71_5281 5281_72 72_201 201_5270 5270_5270turn60 5270turn60_60 60_60turn43 60turn43_43 43_43turn41 43turn41_41 41_5207 5207_5206 5206_5206turn23 5206turn23_23 23_23turn509 23turn509_509 509_509turn16 509turn16_16 16_5204 5204_5204turn29"/>
    </vehicle>
    <vehicle id="3" depart="3.00">
        <route edges="7244_93 93_93turn94 93turn94_94 94_94turn106 94turn106_106 106_106turn113 106turn113_113 113_113turn127 113turn127_127 127_127turn128 127turn128_128 128_128turn129 128turn129_129 129_129turn126 129turn126_126 126_126turn130 126turn130_130"/>
    </vehicle>
    <vehicle id="4" depart="4.00">
        <route edges="341_141 141_5268 5268_5268turn139 5268turn139_139 139_139turn124 139turn124_124 124_124turn111 124turn111_111 111_111turn117 111turn117_117 117_117turn91 117turn91_91 91_91turn71 91turn71_71 71_5281 5281_72 72_201 201_5270 5270_5270turn60 5270turn60_60 60_60turn43 60turn43_43 43_43turn31 43turn31_31 31_31turn30 31turn30_30 30_30turn27 30turn27_27 27_27turn28 27turn28_28 28_28turn511 28turn511_511 511_511turn29 511turn29_29 29_7004 7004_330 330_329 329_329turn8 329turn8_8 8_320 320_319 319_319turn9 319turn9_9 9_9turn10 9turn10_10 10_10turn17 10turn17_17"/>
    </vehicle>
    <vehicle id="5" depart="5.00">
        <route edges="203_203turn204 203turn204_204 204_204turn205 204turn205_205 205_205turn206 205turn206_206 206_206turn208 206turn208_208 208_209 209_209turn210 209turn210_210 210_210turn213 210turn213_213 213_213turn215 213turn215_215 215_215turn216 215turn216_216 216_216turn219 216turn219_219 219_219turn220 219turn220_220 220_420 420_381 381_382"/>
    </vehicle>
    <vehicle id="6" depart="6.00">
        <route edges="111_111turn117 111turn117_117 117_451 451_451turn117 451turn117_117 117_117turn111 117turn111_111 111_111turn124 111turn124_124 124_124turn125 124turn125_125 125_125turn127 125turn127_127 127_5263 5263_5263turn142 5263turn142_142 142_342 342_5264 5264_5264turn147 5264turn147_147 147_147turn150 147turn150_150 150_150turn165 150turn165_165 165_165turn166 165turn166_166 166_166turn168 166turn168_168 168_293 293_290 290_290turn175 290turn175_175 175_185 185_185turn175 185turn175_175 175_290"/>
    </vehicle>
    <vehicle id="7" depart="7.00">
        <route edges="5201_5201turn247 5201turn247_247 247_5201 5201_5202 5202_143 143_16 16_5204 5204_5204turn29 5204turn29_29 29_5205 5205_56 56_58 58_5208 5208_59 59_59turn21 59turn21_21 21_21turn18 21turn18_18 18_5213 5213_5213turn249 5213turn249_249 249_249turn20 249turn20_20 20_20turn51 20turn51_51 51_51turn66 51turn66_66 66_525 525_525turn99 525turn99_99 99_99turn102 99turn102_102 102_102turn103 102turn103_103 103_5291 5291_283 283_5283 5283_135 135_7027 7027_98 98_100 100_416 416_416turn172 416turn172_172"/>
    </vehicle>
    <vehicle id="8" depart="8.00">
        <route edges="204_204turn205 204turn205_205 205_205turn206 205turn206_206 206_206turn208 206turn208_208 208_208turn196 208turn196_196 196_196turn180 196turn180_180 180_180turn160 180turn160_160 160_160turn162 160turn162_162 162_7046 7046_5269 5269_341 341_141 141_5268 5268_5268turn139 5268turn139_139 139_139turn124 139turn124_124 124_124turn111 124turn111_111 111_111turn117 111turn117_117 117_117turn91 117turn91_91 91_91turn71 91turn71_71 71_5281 5281_72 72_201 201_5270 5270_5270turn60 5270turn60_60 60_60turn43 60turn43_43 43_43turn44 43turn44_44 44_44turn45 44turn45_45 45_45turn46 45turn46_46 46_46turn45"/>
    </vehicle>
    <vehicle id="9" depart="9.00">
        <route edges="64_5288 5288_7054 7054_5288 5288_5288turn64 5288turn64_64 64_64turn76 64turn76_76 76_76turn82 76turn82_82 82_82turn93 82turn93_93 93_93turn94 93turn94_94 94_94turn96 94turn96_96 96_96turn97 96turn97_97 97_97turn99 97turn99_99 99_99turn102 99turn102_102 102_102turn103 102turn103_103 103_103turn102"/>
    </vehicle>
    <vehicle id="10" depart="10.00">
        <route edges="63_62 62_7054 7054_5288 5288_5288turn64 5288turn64_64 64_520 520_521 521_521turn522 521turn522_522 522_523 523_523turn524 523turn524_524 524_524turn525 524turn525_525 525_526 526_527 527_527turn528 527turn528_528 528_1990 1990_1990turn530 1990turn530_530 530_5221 5221_532 532_5221 5221_5221turn530"/>
    </vehicle>
    <vehicle id="11" depart="11.00">
        <route edges="273turn228_228 228_228turn229 228turn229_229 229_481 481_481turn226 481turn226_226 226_226turn221 226turn221_221 221_221turn204 221turn204_204 204_406 406_406turn171 406turn171_171 171_161 161_196 196_196turn180 196turn180_180 180_180turn160 180turn160_160 160_160turn159 160turn159_159 159_159turn157 159turn157_157 157_157turn252"/>
    </vehicle>
    <vehicle id="12" depart="12.00">
        <route edges="83_84 84_299 299_299turn84 299turn84_84 84_84turn83 84turn83_83 83_456 456_456turn107 456turn107_107 107_107turn108 107turn108_108 108_108turn118 108turn118_118 118_118turn744 118turn744_744 744_744turn152 744turn152_152 152_152turn153 152turn153_153 153_153turn154 153turn154_154 154_154turn155 154turn155_155 155_355 355_355turn250 355turn250_250 250_250turn156 250turn156_156 156_156turn157 156turn157_157 157_157turn159 157turn159_159 159_159turn160 159turn160_160 160_160turn180 160turn180_180 180_180turn196 180turn196_196 196_196turn208 196turn208_208 208_208turn232 208turn232_232 232_232turn231 232turn231_231 231_231turn232 231turn232_232"/>
    </vehicle>
    <vehicle id="13" depart="13.00">
        <route edges="139_5267 5267_7049 7049_5267 5267_5267turn139 5267turn139_139 139_139turn124 139turn124_124 124_124turn125 124turn125_125 125_125turn127 125turn127_127 127_127turn128 127turn128_128 128_128turn129 128turn129_129 129_129turn126 129turn126_126"/>
    </vehicle>
    <vehicle id="14" depart="14.00">
        <route edges="7046turn162_162 162_162turn160 162turn160_160 160_160turn180 160turn180_180 180_180turn196 180turn196_196 196_161 161_171 171_406 406_406turn204 406turn204_204 204_204turn221 204turn221_221 221_221turn226 221turn226_226 226_481 481_481turn229 481turn229_229"/>
    </vehicle>
    <vehicle id="15" depart="15.00">
        <route edges="63_63turn64 63turn64_64 64_64turn76 64turn76_76 76_76turn82 76turn82_82 82_82turn93 82turn93_93 93_93turn94 93turn94_94 94_549 549_95 95_95turn92 95turn92_92 92_548 548_548turn91 548turn91_91 91_91turn89 91turn89_89 89_89turn88 89turn88_88 88_5239 5239_5239turn110 5239turn110_110 110_5241 5241_7253"/>
    </vehicle>
    <vehicle id="16" depart="16.00">
        <route edges="43_43turn60 43turn60_60 60_5270 5270_201 201_5281 5281_5281turn71 5281turn71_71 71_71turn91 71turn91_91 91_548"/>
    </vehicle>
    <vehicle id="17" depart="17.00">
        <route edges="303_5282 5282_5282turn533 5282turn533_533 533_5271 5271_5292 5292_8055 8055_55 55_5214 5214_5272 5272_5272turn53 5272turn53_53 53_53turn51 53turn51_51 51_51turn50 51turn50_50 50_50turn49 50turn49_49 49_49turn516 49turn516_516 516_47 47_46 46_46turn45 46turn45_45 45_45turn44 45turn44_44 44_44turn43 44turn43_43 43_43turn41 43turn41_41 41_41turn43 41turn43_43"/>
    </vehicle>
    <vehicle id="18" depart="18.00">
        <route edges="7005_7005turn21 7005turn21_21 21_48 48_515 515_515turn516 515turn516_516 516_516turn49 516turn49_49 49_49turn33 49turn33_33"/>
    </vehicle>
    <vehicle id="19" depart="19.00">
        <route edges="70_5234 5234_5235 5235_5236 5236_5229 5229_5229turn71 5229turn71_71 71_5281 5281_72 72_201 201_5270 5270_5270turn60 5270turn60_60 60_60turn43 60turn43_43 43_43turn44 43turn44_44 44_7209"/>
    </vehicle>
    <vehicle id="20" depart="20.00">
        <route edges="5242_5242turn105 5242turn105_105 105_5243 5243_5243turn120 5243turn120_120 120_120turn121 120turn121_121 121_121turn122 121turn122_122 122_123 123_123turn124 123turn124_124 124_124turn125 124turn125_125 125_125turn127 125turn127_127 127_127turn128 127turn128_128 128_128turn129 128turn129_129 129_129turn126 129turn126_126 126_126turn130 126turn130_130 130_116 116_115 115_115turn114 115turn114_114 114_7258"/>
    </vehicle>
    <vehicle id="21" depart="21.00">
        <route edges="206turn208_208 208_209 209_209turn210 209turn210_210 210_210turn213 210turn213_213 213_213turn210"/>
    </vehicle>
    <vehicle id="22" depart="22.00">
        <route edges="130_116 116_115 115_115turn114 115turn114_114 114_114turn99 114turn99_99 99_99turn525 99turn525_525 525_525turn66 525turn66_66 66_66turn51 66turn51_51 51_51turn20 51turn20_20 20_20turn249 20turn249_249 249_5213 5213_5213turn18 5213turn18_18 18_5213"/>
    </vehicle>
    <vehicle id="23" depart="23.00">
        <route edges="143_5203 5203_7202 7202_5203 5203_143 143_16 16_16turn509 16turn509_509 509_509turn23 509turn23_23 23_5206 5206_5207 5207_5207turn41 5207turn41_41 41_41turn43 41turn43_43 43_43turn60 43turn60_60 60_5270 5270_201 201_5281 5281_5281turn71 5281turn71_71 71_71turn91 71turn91_91 91_91turn117 91turn117_117 117_117turn111 117turn111_111 111_111turn124 111turn124_124 124_124turn139 124turn139_139 139_5268 5268_141 141_341 341_5269 5269_7046 7046_7046turn162 7046turn162_162 162_162turn160 162turn160_160 160_160turn180 160turn180_180 180_180turn196 180turn196_196 196_196turn208 196turn208_208 208_208turn232 208turn232_232"/>
    </vehicle>
    <vehicle id="24" depart="24.00">
        <route edges="515_514 514_513 513_514 514_514turn515 514turn515_515 515_515turn516 515turn516_516 516_516turn49 516turn49_49 49_49turn517 49turn517_517 517_63 63_63turn64 63turn64_64 64_64turn76 64turn76_76 76_76turn82 76turn82_82 82_82turn93 82turn93_93 93_93turn94 93turn94_94 94_94turn106 94turn106_106 106_106turn113 106turn113_113 113_113turn127 113turn127_127 127_5263 5263_5263turn142 5263turn142_142 142_342 342_5264 5264_5264turn147 5264turn147_147 147_147turn150 147turn150_150 150_150turn165 150turn165_165 165_421 421_421turn149 421turn149_149 149_149turn174 149turn174_174 174_174turn183 174turn183_183 183_183turn193 183turn193_193 193_197 197_479 479_477 477_477turn210 477turn210_210 210_210turn222 210turn222_222 222_222turn236 222turn236_236 236_423 423_423turn248 423turn248_248 248_248turn253"/>
    </vehicle>
    <vehicle id="25" depart="25.00">
        <route edges="29_5204 5204_16 16_16turn509 16turn509_509 509_509turn23 509turn23_23 23_5206 5206_5207 5207_5207turn41 5207turn41_41 41_41turn43 41turn43_43 43_43turn60 43turn60_60 60_5270 5270_201 201_5281 5281_5281turn71 5281turn71_71 71_71turn91 71turn91_91 91_91turn117 91turn117_117 117_117turn111 117turn111_111 111_111turn124 111turn124_124 124_124turn139 124turn139_139 139_5268 5268_141 141_341 341_5269 5269_7046 7046_7046turn162 7046turn162_162 162_162turn160 162turn160_160 160_160turn180 160turn180_180 180_180turn178"/>
    </vehicle>
    <vehicle id="26" depart="26.00">
        <route edges="224_224turn17 224turn17_17 17_17turn10 17turn10_10 10_10turn7 10turn7_7 7_484 484_484turn7 484turn7_7 7_7turn10"/>
    </vehicle>
    <vehicle id="27" depart="27.00">
        <route edges="51turn50_50 50_50turn49 50turn49_49 49_49turn516 49turn516_516 516_47 47_46 46_46turn45 46turn45_45 45_45turn44 45turn44_44 44_44turn43 44turn43_43 43_43turn41 43turn41_41 41_40 40_39 39_39turn38 39turn38_38 38_38turn25 38turn25_25 25_25turn36 25turn36_36 36_36turn24 36turn24_24 24_24turn13 24turn13_13 13_486 486_486turn14 486turn14_14"/>
    </vehicle>
    <vehicle id="28" depart="28.00">
        <route edges="180_180turn196 180turn196_196 196_309 309_309turn196 309turn196_196 196_196turn180 196turn180_180 180_180turn160 180turn160_160 160_160turn159 160turn159_159 159_418 418_325 325_388 388_388turn121 388turn121_121 121_5245 5245_5244 5244_5244turn110 5244turn110_110 110_5241 5241_7253 7253_5241 5241_5241turn110"/>
    </vehicle>
    <vehicle id="29" depart="29.00">
        <route edges="177_409 409_186 186_186turn184 186turn184_184 184_184turn183 184turn183_183 183_181 181_181turn180 181turn180_180 180_180turn160 180turn160_160 160_160turn159 160turn159_159 159_159turn157 159turn157_157 157_157turn252 157turn252_252 252_7053"/>
    </vehicle>
    <vehicle id="30" depart="30.00">
        <route edges="96_94 94_549 549_95 95_95turn92 95turn92_92 92_548 548_548turn91 548turn91_91 91_91turn71 91turn71_71 71_5281 5281_72 72_201 201_5270 5270_5270turn60 5270turn60_60 60_60turn43 60turn43_43 43_43turn41 43turn41_41 41_5207 5207_5206 5206_5206turn23 5206turn23_23 23_23turn509 23turn509_509 509_509turn511"/>
    </vehicle>
    <vehicle id="31" depart="31.00">
        <route edges="458turn174_174 174_174turn149 174turn149_149 149_421 421_421turn165 421turn165_165 165_165turn150 165turn150_150 150_150turn147 150turn147_147 147_5264 5264_5264turn342 5264turn342_342 342_142 142_5263 5263_5263turn127 5263turn127_127 127_127turn113 127turn113_113 113_113turn106 113turn106_106 106_106turn94 106turn94_94 94_93 93_93turn82 93turn82_82 82_82turn76 82turn76_76 76_76turn64 76turn64_64 64_520 520_520turn64"/>
    </vehicle>
    <vehicle id="32" depart="32.00">
        <route edges="7040_7040turn342 7040turn342_342 342_5264 5264_5264turn147 5264turn147_147 147_147turn150 147turn150_150 150_150turn165 150turn165_165 165_165turn163 165turn163_163 163_163turn162 163turn162_162 162_162turn160 162turn160_160 160_160turn159 160turn159_159 159_159turn157 159turn157_157 157_157turn252 157turn252_252 252_7053 7053_7053turn251 7053turn251_251 251_340 340_140 140_5274 5274_5275 5275_5275turn120 5275turn120_120"/>
    </vehicle>
    <vehicle id="33" depart="33.00">
        <route edges="208_208turn196 208turn196_196 196_196turn180 196turn180_180 180_180turn160 180turn160_160 160_160turn159 160turn159_159 159_418 418_325 325_388 388_388turn121 388turn121_121 121_5245 5245_5244 5244_5244turn110 5244turn110_110 110_5240"/>
    </vehicle>
    <vehicle id="34" depart="34.00">
        <route edges="24turn13_13 13_486 486_486turn14 486turn14_14 14_5230 5230_5230turn38 5230turn38_38 38_5231 5231_5231turn70 5231turn70_70 70_5238 5238_5238turn88 5238turn88_88 88_5239 5239_5239turn110 5239turn110_110 110_5244 5244_5245 5245_5245turn121 5245turn121_121 121_388 388_325 325_418 418_418turn159 418turn159_159 159_159turn160 159turn160_160 160_160turn180 160turn180_180 180_180turn196 180turn196_196 196_161 161_171 171_406 406_406turn204 406turn204_204 204_204turn221 204turn221_221"/>
    </vehicle>
    <vehicle id="35" depart="35.00">
        <route edges="199_405 405_405turn420 405turn420_420 420_220 220_220turn219 220turn219_219 219_219turn216 219turn216_216 216_216turn215 216turn215_215 215_215turn213 215turn213_213 213_213turn210 213turn210_210 210_209 209_209turn208 209turn208_208 208_208turn196 208turn196_196 196_196turn180 196turn180_180 180_180turn160 180turn160_160 160_160turn159 160turn159_159 159_159turn157 159turn157_157 157_157turn252 157turn252_252 252_7053 7053_7053turn251 7053turn251_251 251_340 340_140 140_5274 5274_5275 5275_5275turn120 5275turn120_120 120_5243 5243_5243turn105 5243turn105_105 105_105turn109 105turn109_109 109_109turn104 109turn104_104 104_104turn86 104turn86_86 86_86turn85 86turn85_85 85_85turn80 85turn80_80 80_80turn85 80turn85_85"/>
    </vehicle>
    <vehicle id="36" depart="36.00">
        <route edges="7217_7217turn511 7217turn511_511 511_511turn28 511turn28_28 28_28turn27 28turn27_27 27_27turn30 27turn30_30 30_30turn31 30turn31_31 31_31turn43 31turn43_43 43_43turn60 43turn60_60 60_5270 5270_201 201_5281 5281_5281turn71 5281turn71_71 71_71turn91 71turn91_91 91_548 548_548turn92 548turn92_92 92_95 95_549 549_549turn94 549turn94_94 94_94turn106 94turn106_106 106_106turn113 106turn113_113 113_113turn127 113turn127_127 127_5263 5263_5263turn142 5263turn142_142 142_342 342_5264 5264_5264turn147 5264turn147_147 147_147turn150 147turn150_150 150_150turn165 150turn165_165 165_421 421_421turn149 421turn149_149 149_149turn174 149turn174_174 174_174turn183 174turn183_183 183_183turn193 183turn193_193 193_197 197_479 479_477 477_477turn210 477turn210_210 210_210turn222 210turn222_222 222_222turn236 222turn236_236"/>
    </vehicle>
    <vehicle id="37" depart="37.00">
        <route edges="5205turn29_29 29_29turn511 29turn511_511 511_511turn28 511turn28_28 28_28turn27 28turn27_27 27_27turn30 27turn30_30 30_30turn31 30turn31_31 31_31turn43 31turn43_43 43_43turn60 43turn60_60 60_5270 5270_201 201_5281 5281_5281turn71 5281turn71_71 71_71turn91 71turn91_91 91_91turn117 91turn117_117 117_117turn111 117turn111_111 111_111turn124 111turn124_124 124_124turn139 124turn139_139 139_5268 5268_141 141_341 341_5269 5269_7046 7046_7046turn162 7046turn162_162 162_162turn160 162turn160_160 160_160turn180 160turn180_180 180_180turn196 180turn196_196 196_161 161_171 171_406 406_406turn204 406turn204_204 204_204turn221 204turn221_221 221_221turn226 221turn226_226 226_481 481_481turn229 481turn229_229 229_229turn228 229turn228_228 228_273 273_273turn228 273turn228_228"/>
    </vehicle>
    <vehicle id="38" depart="38.00">
        <route edges="7274_5292 5292_8055 8055_55 55_5279 5279_5279turn532 5279turn532_532 532_5286 5286_5277 5277_103 103_5291 5291_283 283_5283 5283_135 135_335 335_5250"/>
    </vehicle>
    <vehicle id="39" depart="39.00">
        <route edges="222turn210_210 210_209 209_209turn208 209turn208_208 208_208turn196 208turn196_196 196_309 309_309turn196 309turn196_196 196_196turn208 196turn208_208"/>
    </vehicle>
    <vehicle id="40" depart="40.00">
        <route edges="462turn225_225 225_225turn7 225turn7_7 7_7turn10 7turn10_10 10_10turn17 10turn17_17 17_17turn224 17turn224_224 224_18 18_18turn33 18turn33_33 33_33turn49 33turn49_49 49_49turn517 49turn517_517 517_63 63_63turn64 63turn64_64 64_64turn76 64turn76_76 76_76turn82 76turn82_82 82_82turn93 82turn93_93 93_93turn94 93turn94_94 94_94turn106 94turn106_106 106_106turn113 106turn113_113 113_113turn127 113turn127_127 127_5263 5263_5263turn142 5263turn142_142 142_342 342_5264 5264_5264turn147 5264turn147_147 147_147turn150 147turn150_150 150_150turn165 150turn165_165 165_421 421_421turn149 421turn149_149 149_149turn174 149turn174_174 174_174turn183 174turn183_183 183_181 181_181turn180 181turn180_180 180_180turn196 180turn196_196 196_161 161_171 171_406 406_406turn204 406turn204_204 204_204turn203 204turn203_203 203_392"/>
    </vehicle>
    <vehicle id="41" depart="41.00">
        <route edges="482_482turn206 482turn206_206 206_206turn208 206turn208_208 208_209 209_209turn210 209turn210_210 210_477 477_479 479_197 197_197turn193 197turn193_193 193_193turn183 193turn183_183 183_183turn174 183turn174_174 174_174turn149 174turn149_149 149_421 421_421turn165 421turn165_165 165_165turn150 165turn150_150 150_150turn147 150turn147_147 147_5264 5264_5264turn342 5264turn342_342 342_142 142_5263 5263_5263turn127 5263turn127_127 127_127turn113 127turn113_113 113_113turn106 113turn106_106 106_106turn94 106turn94_94 94_93 93_93turn82 93turn82_82 82_82turn76 82turn76_76 76_76turn64 76turn64_64 64_64turn63 64turn63_63 63_63turn517 63turn517_517 517_517turn49 517turn49_49 49_49turn50 49turn50_50 50_7221 7221_7221turn50 7221turn50_50"/>
    </vehicle>
    <vehicle id="42" depart="42.00">
        <route edges="31turn43_43 43_43turn60 43turn60_60 60_5270 5270_201 201_5281 5281_5281turn71 5281turn71_71 71_71turn91 71turn91_91 91_548 548_548turn92 548turn92_92 92_95 95_549 549_549turn94 549turn94_94 94_94turn106 94turn106_106 106_106turn113 106turn113_113 113_113turn127 113turn127_127 127_5263 5263_5263turn142 5263turn142_142 142_342 342_5264 5264_5264turn147 5264turn147_147 147_147turn150 147turn150_150 150_150turn165 150turn165_165 165_421 421_421turn149 421turn149_149 149_149turn174 149turn174_174 174_174turn183 174turn183_183 183_183turn184 183turn184_184"/>
    </vehicle>
    <vehicle id="43" depart="43.00">
        <route edges="99turn97_97 97_97turn96 97turn96_96 96_94 94_94turn106 94turn106_106 106_106turn113 106turn113_113 113_113turn127 113turn127_127 127_5263 5263_5263turn142 5263turn142_142 142_342 342_5264 5264_5264turn147 5264turn147_147 147_147turn150 147turn150_150 150_150turn165 150turn165_165 165_165turn163 165turn163_163 163_163turn162 163turn162_162 162_162turn160 162turn160_160 160_160turn159 160turn159_159 159_418 418_325 325_388 388_388turn121 388turn121_121"/>
    </vehicle>
    <vehicle id="44" depart="44.00">
        <route edges="137turn335_335 335_135 135_5249 5249_5248 5248_5248turn132 5248turn132_132 132_132turn131 132turn131_131 131_5246 5246_5246turn130 5246turn130_130 130_116 116_115 115_115turn114 115turn114_114 114_114turn99 114turn99_99"/>
    </vehicle>
    <vehicle id="45" depart="45.00">
        <route edges="14_5230 5230_5230turn38 5230turn38_38 38_38turn25 38turn25_25 25_25turn36 25turn36_36 36_36turn24 36turn24_24 24_24turn13 24turn13_13 13_7002 7002_7002turn6 7002turn6_6 6_6turn306 6turn306_306 306_307 307_307turn503 307turn503_503 503_503turn504 503turn504_504 504_465"/>
    </vehicle>
    <vehicle id="46" depart="46.00">
        <route edges="550_745 745_746 746_746turn228 746turn228_228 228_228turn229 228turn229_229 229_229turn231 229turn231_231 231_231turn232 231turn232_232 232_232turn236 232turn236_236 236_236turn222 236turn222_222 222_222turn210 222turn210_210 210_477 477_479 479_197 197_197turn193 197turn193_193 193_193turn183 193turn183_183 183_183turn174 183turn174_174 174_174turn149 174turn149_149 149_421 421_421turn165 421turn165_165 165_165turn150 165turn150_150 150_150turn147 150turn147_147 147_5264 5264_5264turn342 5264turn342_342 342_142 142_5263 5263_5263turn127 5263turn127_127 127_127turn113 127turn113_113 113_113turn106 113turn106_106 106_106turn94 106turn94_94 94_93 93_93turn82 93turn82_82 82_82turn76 82turn76_76 76_76turn64 76turn64_64 64_64turn63 64turn63_63 63_63turn517 63turn517_517 517_517turn49 517turn49_49 49_49turn33 49turn33_33 33_33turn18 33turn18_18 18_18turn224 18turn224_224 224_224turn17 224turn17_17 17_17turn10 17turn10_10 10_10turn9 10turn9_9 9_350 350_359 359_358 358_357 357_357turn2 357turn2_2 2_2turn3"/>
    </vehicle>
    <vehicle id="47" depart="47.00">
        <route edges="124turn139_139 139_5268 5268_141 141_341 341_5269 5269_7046 7046_7046turn162 7046turn162_162 162_162turn163 162turn163_163 163_163turn165 163turn165_165 165_421 421_421turn149 421turn149_149 149_149turn174 149turn174_174 174_174turn183 174turn183_183 183_183turn193 183turn193_193 193_197 197_479 479_477 477_477turn210 477turn210_210 210_210turn222 210turn222_222 222_222turn236 222turn236_236 236_423 423_423turn248 423turn248_248 248_248turn253 248turn253_253 253_267"/>
    </vehicle>
    <vehicle id="48" depart="48.00">
        <route edges="99turn102_102 102_102turn99 102turn99_99 99_99turn97 99turn97_97 97_97turn96 97turn96_96 96_94 94_94turn106 94turn106_106 106_106turn113 106turn113_113 113_113turn127 113turn127_127 127_5263 5263_5263turn142 5263turn142_142 142_342 342_5264 5264_5264turn147 5264turn147_147 147_147turn150 147turn150_150 150_150turn165 150turn165_165 165_421 421_421turn149 421turn149_149 149_149turn174 149turn174_174 174_174turn183 174turn183_183 183_181 181_181turn180 181turn180_180 180_180turn196 180turn196_196 196_161 161_171 171_406 406_406turn204 406turn204_204 204_204turn203 204turn203_203 203_401 401_401turn402 401turn402_402 402_202 202_403 403_81"/>
    </vehicle>
    <vehicle id="49" depart="49.00">
        <route edges="89_89turn91 89turn91_91 91_91turn89 91turn89_89 89_89turn88 89turn88_88 88_88turn87 88turn87_87 87_5287 5287_5287turn86 5287turn86_86 86_86turn68 86turn68_68 68_7250"/>
    </vehicle>
    <vehicle id="50" depart="50.00">
        <route edges="106_106turn94 106turn94_94 94_549 549_95 95_95turn92 95turn92_92 92_548 548_548turn91 548turn91_91 91_91turn89 91turn89_89 89_89turn88 89turn88_88 88_5238 5238_5238turn70"/>
    </vehicle>
    <vehicle id="51" depart="51.00">
        <route edges="522_523 523_523turn522 523turn522_522 522_522turn521 522turn521_521 521_520 520_519 519_517 517_517turn49 517turn49_49 49_49turn516 49turn516_516 516_47 47_46 46_46turn45 46turn45_45 45_45turn44 45turn44_44 44_44turn43 44turn43_43 43_43turn41 43turn41_41 41_40 40_541"/>
    </vehicle>
    <vehicle id="52" depart="52.00">
        <route edges="224_224turn17 224turn17_17 17_17turn10 17turn10_10 10_10turn9 10turn9_9 9_319 319_320 320_320turn8 320turn8_8 8_329 329_7004 7004_29 29_29turn511 29turn511_511 511_511turn509 511turn509_509 509_509turn16 509turn16_16"/>
    </vehicle>
    <vehicle id="53" depart="53.00">
        <route edges="150turn147_147 147_5264 5264_5264turn342 5264turn342_342 342_142 142_5263 5263_5263turn127 5263turn127_127 127_127turn113 127turn113_113 113_113turn106 113turn106_106 106_106turn94 106turn94_94 94_549 549_95 95_95turn92 95turn92_92 92_548 548_548turn91 548turn91_91 91_91turn71 91turn71_71 71_5281 5281_72 72_201 201_5270 5270_5270turn60 5270turn60_60 60_60turn43 60turn43_43 43_43turn31 43turn31_31 31_31turn30 31turn30_30 30_7216"/>
    </vehicle>
    <vehicle id="54" depart="54.00">
        <route edges="369_249 249_5213 5213_5213turn18 5213turn18_18 18_18turn33 18turn33_33 33_33turn49 33turn49_49 49_49turn516 49turn516_516 516_47 47_46 46_46turn45 46turn45_45 45_45turn44 45turn44_44 44_44turn43 44turn43_43 43_43turn41 43turn41_41 41_40 40_39 39_39turn38 39turn38_38 38_38turn25 38turn25_25 25_25turn36 25turn36_36 36_5232 5232_5232turn69 5232turn69_69 69_69turn68 69turn68_68 68_68turn86 68turn86_86 86_86turn85 86turn85_85 85_85turn86"/>
    </vehicle>
    <vehicle id="55" depart="55.00">
        <route edges="7216turn30_30 30_30turn31 30turn31_31 31_31turn43 31turn43_43 43_43turn60 43turn60_60 60_5270 5270_201 201_5281 5281_5281turn71 5281turn71_71 71_71turn91 71turn91_91 91_91turn117 91turn117_117 117_117turn111 117turn111_111 111_111turn124 111turn124_124 124_124turn139 124turn139_139 139_5268 5268_141 141_341 341_5269 5269_7046 7046_7046turn162 7046turn162_162 162_162turn160 162turn160_160 160_160turn180 160turn180_180 180_180turn196 180turn196_196 196_161 161_171 171_406 406_406turn204 406turn204_204 204_204turn203 204turn203_203 203_453"/>
    </vehicle>
    <vehicle id="56" depart="56.00">
        <route edges="410turn195_195 195_212 212_212turn195 212turn195_195 195_410 410_410turn186 410turn186_186 186_409 409_409turn177 409turn177_177 177_177turn175 177turn175_175 175_290 290_293 293_293turn168 293turn168_168 168_168turn166 168turn166_166 166_166turn168"/>
    </vehicle>
    <vehicle id="57" depart="57.00">
        <route edges="7272_7272turn96 7272turn96_96 96_94 94_93 93_93turn82 93turn82_82 82_82turn76 82turn76_76 76_76turn64 76turn64_64 64_64turn63 64turn63_63 63_63turn517 63turn517_517 517_517turn49 517turn49_49 49_49turn33 49turn33_33 33_33turn18 33turn18_18 18_18turn21 18turn21_21 21_59 59_5208 5208_58 58_56 56_5205 5205_5205turn29 5205turn29_29 29_7004 7004_330 330_329 329_7004 7004_29"/>
    </vehicle>
    <vehicle id="58" depart="58.00">
        <route edges="23_5206 5206_5207 5207_5207turn41 5207turn41_41 41_40 40_40turn41 40turn41_41 41_5207 5207_5206 5206_5206turn23 5206turn23_23 23_23turn509 23turn509_509 509_509turn16"/>
    </vehicle>
    <vehicle id="59" depart="59.00">