<?xml version="1.0" ?>
<edges>
    <edge id="171_1" from="171" to="1" numLanes="1" speed="13.4112"/>
    <edge id="357_357_2_turn" from="357" to="357_2_turn" numLanes="2" speed="15.6464">
        <lane index="0" length="39.624" speed="15.6464"/>
        <lane index="1" length="39.624" speed="15.6464"/>
    </edge>
    <edge id="357_2_turn_2" from="357_2_turn" to="2" numLanes="2" speed="15.6464"/>
    <edge id="101_101_2_turn" from="101" to="101_2_turn" numLanes="2" speed="15.6464">
        <lane index="0" length="30.48" speed="15.6464"/>
        <lane index="1" length="30.48" speed="15.6464"/>
    </edge>
    <edge id="101_2_turn_2" from="101_2_turn" to="2" numLanes="2" speed="15.6464"/>
    <edge id="356_356_2_turn" from="356" to="356_2_turn" numLanes="2" speed="17.8816">
        <lane index="0" length="62.484" speed="17.8816"/>
        <lane index="1" length="62.484" speed="17.8816"/>
    </edge>
    <edge id="356_2_turn_2" from="356_2_turn" to="2" numLanes="2" speed="17.8816"/>
    <edge id="3_2" from="3" to="2" numLanes="3" speed="17.8816">
        <lane index="0" length="809.8536" speed="17.8816"/>
        <lane index="1" length="809.8536" speed="17.8816"/>
        <lane index="2" length="809.8536" speed="17.8816"/>
    </edge>
    <edge id="225_225_3_turn" from="225" to="225_3_turn" numLanes="2" speed="17.8816">
        <lane index="0" length="30.48" speed="17.8816"/>
        <lane index="1" length="30.48" speed="17.8816"/>
    </edge>
    <edge id="225_3_turn_3" from="225_3_turn" to="3" numLanes="5" speed="17.8816"/>
    <edge id="351_351_3_turn" from="351" to="351_3_turn" numLanes="2" speed="17.8816">
        <lane index="0" length="60.96" speed="17.8816"/>
        <lane index="1" length="60.96" speed="17.8816"/>
    </edge>
    <edge id="351_3_turn_3" from="351_3_turn" to="3" numLanes="5" speed="17.8816"/>
    <edge id="2_2_3_turn" from="2" to="2_3_turn" numLanes="2" speed="17.8816">
        <lane index="0" length="45.72" speed="17.8816"/>
        <lane index="1" length="45.72" speed="17.8816"/>
    </edge>
    <edge id="2_3_turn_3" from="2_3_turn" to="3" numLanes="3" speed="17.8816"/>
    <edge id="352_352_3_turn" from="352" to="352_3_turn" numLanes="2" speed="17.8816">
        <lane index="0" length="35.052" speed="17.8816"/>
        <lane index="1" length="35.052" speed="17.8816"/>
    </edge>
    <edge id="352_3_turn_3" from="352_3_turn" to="3" numLanes="3" speed="17.8816"/>
    <edge id="411_4" from="411" to="4" numLanes="3" speed="13.4112">
        <lane index="0" length="138.684" speed="13.4112"/>
        <lane index="1" length="138.684" speed="13.4112"/>
        <lane index="2" length="138.684" speed="13.4112"/>
    </edge>
    <edge id="378_4" from="378" to="4" speed="13.4112"/>
    <edge id="377_4" from="377" to="4" speed="13.4112"/>
    <edge id="503_503_5_turn" from="503" to="503_5_turn" numLanes="2" speed="15.6464">
        <lane index="0" length="76.2" speed="15.6464"/>
        <lane index="1" length="76.2" speed="15.6464"/>
    </edge>
    <edge id="503_5_turn_5" from="503_5_turn" to="5" numLanes="5" speed="15.6464"/>
    <edge id="312_312_5_turn" from="312" to="312_5_turn" numLanes="2" speed="15.6464">
        <lane index="0" length="77.724" speed="15.6464"/>
        <lane index="1" length="77.724" speed="15.6464"/>
    </edge>
    <edge id="312_5_turn_5" from="312_5_turn" to="5" numLanes="5" speed="15.6464"/>
    <edge id="284_284_5_turn" from="284" to="284_5_turn" numLanes="2" speed="13.4112">
        <lane index="0" length="25.908" speed="13.4112"/>
        <lane index="1" length="25.908" speed="13.4112"/>
    </edge>
    <edge id="284_5_turn_5" from="284_5_turn" to="5" numLanes="3" speed="13.4112"/>
    <edge id="313_313_5_turn" from="313" to="313_5_turn" numLanes="2" speed="13.4112">
        <lane index="0" length="41.148" speed="13.4112"/>
        <lane index="1" length="41.148" speed="13.4112"/>
    </edge>
    <edge id="313_5_turn_5" from="313_5_turn" to="5" numLanes="4" speed="13.4112"/>
    <edge id="7002_7002_6_turn" from="7002" to="7002_6_turn" numLanes="2" speed="20.1168">
        <lane index="0" length="45.72" speed="20.1168"/>
        <lane index="1" length="45.72" speed="20.1168"/>
    </edge>
    <edge id="7002_6_turn_6" from="7002_6_turn" to="6" numLanes="5" speed="20.1168"/>
    <edge id="306_306_6_turn" from="306" to="306_6_turn" numLanes="2" speed="20.1168">
        <lane index="0" length="115.82400000000001" speed="20.1168"/>
        <lane index="1" length="115.82400000000001" speed="20.1168"/>
    </edge>
    <edge id="306_6_turn_6" from="306_6_turn" to="6" numLanes="5" speed="20.1168"/>
    <edge id="339_6" from="339" to="6" numLanes="4" speed="13.4112">
        <lane index="0" length="245.9736" speed="13.4112"/>
        <lane index="1" length="245.9736" speed="13.4112"/>
        <lane index="2" length="245.9736" speed="13.4112"/>
        <lane index="3" length="245.9736" speed="13.4112"/>
    </edge>
    <edge id="343_6" from="343" to="6" speed="13.4112"/>
    <edge id="10_10_7_turn" from="10" to="10_7_turn" numLanes="2" speed="17.8816">
        <lane index="0" length="32.004000000000005" speed="17.8816"/>
        <lane index="1" length="32.004000000000005" speed="17.8816"/>
    </edge>
    <edge id="10_7_turn_7" from="10_7_turn" to="7" numLanes="4" speed="17.8816"/>
    <edge id="225_225_7_turn" from="225" to="225_7_turn" numLanes="2" speed="17.8816">
        <lane index="0" length="30.48" speed="17.8816"/>
        <lane index="1" length="30.48" speed="17.8816"/>
    </edge>
    <edge id="225_7_turn_7" from="225_7_turn" to="7" numLanes="4" speed="17.8816"/>
    <edge id="484_484_7_turn" from="484" to="484_7_turn" numLanes="2" speed="13.4112">
        <lane index="0" length="73.152" speed="13.4112"/>
        <lane index="1" length="73.152" speed="13.4112"/>
    </edge>
    <edge id="484_7_turn_7" from="484_7_turn" to="7" numLanes="3" speed="13.4112"/>
    <edge id="326_326_7_turn" from="326" to="326_7_turn" numLanes="2" speed="13.4112">
        <lane index="0" length="15.24" speed="13.4112"/>
        <lane index="1" length="15.24" speed="13.4112"/>
    </edge>
    <edge id="326_7_turn_7" from="326_7_turn" to="7" numLanes="3" speed="13.4112"/>
    <edge id="329_329_8_turn" from="329" to="329_8_turn" numLanes="2" speed="15.6464">
        <lane index="0" length="82.296" speed="15.6464"/>
        <lane index="1" length="82.296" speed="15.6464"/>
    </edge>
    <edge id="329_8_turn_8" from="329_8_turn" to="8" numLanes="5" speed="15.6464"/>
    <edge id="314_314_8_turn" from="314" to="314_8_turn" numLanes="2" speed="15.6464">
        <lane index="0" length="53.34" speed="15.6464"/>
        <lane index="1" length="53.34" speed="15.6464"/>
    </edge>
    <edge id="314_8_turn_8" from="314_8_turn" to="8" numLanes="5" speed="15.6464"/>
    <edge id="507_507_8_turn" from="507" to="507_8_turn" numLanes="2" speed="20.1168">
        <lane index="0" length="65.532" speed="20.1168"/>
        <lane index="1" length="65.532" speed="20.1168"/>
    </edge>
    <edge id="507_8_turn_8" from="507_8_turn" to="8" numLanes="5" speed="20.1168"/>
    <edge id="320_320_8_turn" from="320" to="320_8_turn" numLanes="2" speed="20.1168">
        <lane index="0" length="68.58" speed="20.1168"/>
        <lane index="1" length="68.58" speed="20.1168"/>
    </edge>
    <edge id="320_8_turn_8" from="320_8_turn" to="8" numLanes="4" speed="20.1168"/>
    <edge id="349_349_9_turn" from="349" to="349_9_turn" numLanes="2" speed="15.6464">
        <lane index="0" length="33.528" speed="15.6464"/>
        <lane index="1" length="33.528" speed="15.6464"/>
    </edge>
    <edge id="349_9_turn_9" from="349_9_turn" to="9" numLanes="3" speed="15.6464"/>
    <edge id="350_350_9_turn" from="350" to="350_9_turn" numLanes="2" speed="15.6464">
        <lane index="0" length="48.768" speed="15.6464"/>
        <lane index="1" length="48.768" speed="15.6464"/>
    </edge>
    <edge id="350_9_turn_9" from="350_9_turn" to="9" numLanes="3" speed="15.6464"/>
    <edge id="319_319_9_turn" from="319" to="319_9_turn" numLanes="2" speed="20.1168">
        <lane index="0" length="53.34" speed="20.1168"/>
        <lane index="1" length="53.34" speed="20.1168"/>
    </edge>
    <edge id="319_9_turn_9" from="319_9_turn" to="9" numLanes="4" speed="20.1168"/>
    <edge id="10_10_9_turn" from="10" to="10_9_turn" numLanes="2" speed="17.8816">
        <lane index="0" length="45.72" speed="17.8816"/>
        <lane index="1" length="45.72" speed="17.8816"/>
    </edge>
    <edge id="10_9_turn_9" from="10_9_turn" to="9" numLanes="3" speed="17.8816"/>
    <edge id="17_17_10_turn" from="17" to="17_10_turn" numLanes="2" speed="17.8816">
        <lane index="0" length="45.72" speed="17.8816"/>
        <lane index="1" length="45.72" speed="17.8816"/>
    </edge>
    <edge id="17_10_turn_10" from="17_10_turn" to="10" numLanes="5" speed="17.8816"/>
    <edge id="7_7_10_turn" from="7" to="7_10_turn" numLanes="2" speed="17.8816">
        <lane index="0" length="44.196000000000005" speed="17.8816"/>
        <lane index="1" length="44.196000000000005" speed="17.8816"/>
    </edge>
    <edge id="7_10_turn_10" from="7_10_turn" to="10" numLanes="5" speed="17.8816"/>
    <edge id="9_9_10_turn" from="9" to="9_10_turn" numLanes="2" speed="17.8816">
        <lane index="0" length="33.528" speed="17.8816"/>
        <lane index="1" length="33.528" speed="17.8816"/>
    </edge>
    <edge id="9_10_turn_10" from="9_10_turn" to="10" numLanes="5" speed="17.8816"/>
    <edge id="11_11_10_turn" from="11" to="11_10_turn" numLanes="2" speed="17.8816">
        <lane index="0" length="86.86800000000001" speed="17.8816"/>
        <lane index="1" length="86.86800000000001" speed="17.8816"/>
    </edge>
    <edge id="11_10_turn_10" from="11_10_turn" to="10" numLanes="5" speed="17.8816"/>
    <edge id="173_173_11_turn" from="173" to="173_11_turn" numLanes="2" speed="13.4112">
        <lane index="0" length="44.196000000000005" speed="13.4112"/>
        <lane index="1" length="44.196000000000005" speed="13.4112"/>
    </edge>
    <edge id="173_11_turn_11" from="173_11_turn" to="11" numLanes="2" speed="13.4112"/>
    <edge id="327_327_11_turn" from="327" to="327_11_turn" numLanes="2" speed="13.4112">
        <lane index="0" length="30.48" speed="13.4112"/>
        <lane index="1" length="30.48" speed="13.4112"/>
    </edge>
    <edge id="327_11_turn_11" from="327_11_turn" to="11" numLanes="2" speed="13.4112"/>
    <edge id="10_10_11_turn" from="10" to="10_11_turn" numLanes="2" speed="17.8816">
        <lane index="0" length="30.48" speed="17.8816"/>
        <lane index="1" length="30.48" speed="17.8816"/>
    </edge>
    <edge id="10_11_turn_11" from="10_11_turn" to="11" numLanes="3" speed="17.8816"/>
    <edge id="12_12_11_turn" from="12" to="12_11_turn" numLanes="2" speed="17.8816">
        <lane index="0" length="24.384" speed="17.8816"/>
        <lane index="1" length="24.384" speed="17.8816"/>
    </edge>
    <edge id="12_11_turn_11" from="12_11_turn" to="11" numLanes="3" speed="17.8816"/>
    <edge id="19_19_12_turn" from="19" to="19_12_turn" numLanes="2" speed="20.1168">
        <lane index="0" length="48.768" speed="20.1168"/>
        <lane index="1" length="48.768" speed="20.1168"/>
    </edge>
    <edge id="19_12_turn_12" from="19_12_turn" to="12" numLanes="4" speed="20.1168"/>
    <edge id="328_12" from="328" to="12" numLanes="3" speed="20.1168">
        <lane index="0" length="705.3072000000001" speed="20.1168"/>
        <lane index="1" length="705.3072000000001" speed="20.1168"/>
        <lane index="2" length="705.3072000000001" speed="20.1168"/>
    </edge>
    <edge id="11_12" from="11" to="12" numLanes="3" speed="17.8816">
        <lane index="0" length="784.86" speed="17.8816"/>
        <lane index="1" length="784.86" speed="17.8816"/>
        <lane index="2" length="784.86" speed="17.8816"/>
    </edge>
    <edge id="24_24_13_turn" from="24" to="24_13_turn" numLanes="2" speed="17.8816">
        <lane index="0" length="64.00800000000001" speed="17.8816"/>
        <lane index="1" length="64.00800000000001" speed="17.8816"/>
    </edge>
    <edge id="24_13_turn_13" from="24_13_turn" to="13" numLanes="6" speed="17.8816"/>
    <edge id="7002_7002_13_turn" from="7002" to="7002_13_turn" numLanes="2" speed="20.1168">
        <lane index="0" length="59.436" speed="20.1168"/>
        <lane index="1" length="59.436" speed="20.1168"/>
    </edge>
    <edge id="7002_13_turn_13" from="7002_13_turn" to="13" numLanes="6" speed="20.1168"/>
    <edge id="7001_7001_13_turn" from="7001" to="7001_13_turn" numLanes="2" speed="17.8816">
        <lane index="0" length="67.056" speed="17.8816"/>
        <lane index="1" length="67.056" speed="17.8816"/>
    </edge>
    <edge id="7001_13_turn_13" from="7001_13_turn" to="13" numLanes="5" speed="17.8816"/>
    <edge id="486_486_13_turn" from="486" to="486_13_turn" numLanes="2" speed="17.8816">
        <lane index="0" length="91.44" speed="17.8816"/>
        <lane index="1" length="91.44" speed="17.8816"/>
    </edge>
    <edge id="486_13_turn_13" from="486_13_turn" to="13" numLanes="5" speed="17.8816"/>
    <edge id="5230_5230_14_turn" from="5230" to="5230_14_turn" numLanes="2" speed="13.4112">
        <lane index="0" length="30.48" speed="13.4112"/>
        <lane index="1" length="30.48" speed="13.4112"/>
    </edge>
    <edge id="5230_14_turn_14" from="5230_14_turn" to="14" numLanes="2" speed="13.4112"/>
    <edge id="7003_7003_14_turn" from="7003" to="7003_14_turn" numLanes="2" speed="13.4112">
        <lane index="0" length="10.668000000000001" speed="13.4112"/>
        <lane index="1" length="10.668000000000001" speed="13.4112"/>
    </edge>
    <edge id="7003_14_turn_14" from="7003_14_turn" to="14" numLanes="3" speed="13.4112"/>
    <edge id="486_486_14_turn" from="486" to="486_14_turn" numLanes="2" speed="17.8816">
        <lane index="0" length="64.00800000000001" speed="17.8816"/>
        <lane index="1" length="64.00800000000001" speed="17.8816"/>
    </edge>
    <edge id="486_14_turn_14" from="486_14_turn" to="14" numLanes="4" speed="17.8816"/>
    <edge id="247_247_14_turn" from="247" to="247_14_turn" numLanes="2" speed="13.4112">
        <lane index="0" length="60.96" speed="13.4112"/>
        <lane index="1" length="60.96" speed="13.4112"/>
    </edge>
    <edge id="247_14_turn_14" from="247_14_turn" to="14" numLanes="3" speed="13.4112"/>
    <edge id="138_15" from="138" to="15" numLanes="1" speed="13.4112"/>
    <edge id="509_509_16_turn" from="509" to="509_16_turn" numLanes="2" speed="13.4112">
        <lane index="0" length="30.48" speed="13.4112"/>
        <lane index="1" length="30.48" speed="13.4112"/>
    </edge>
    <edge id="509_16_turn_16" from="509_16_turn" to="16" numLanes="4" speed="13.4112"/>
    <edge id="143_16" from="143" to="16" numLanes="3" speed="13.4112">
        <lane index="0" length="51.5112" speed="13.4112"/>
        <lane index="1" length="51.5112" speed="13.4112"/>
        <lane index="2" length="51.5112" speed="13.4112"/>
    </edge>
    <edge id="7203_16" from="7203" to="16" numLanes="1" speed="13.4112">
        <lane index="0" length="53.644800000000004" speed="13.4112"/>
    </edge>
    <edge id="5204_16" from="5204" to="16" numLanes="3" speed="13.4112">
        <lane index="0" length="82.296" speed="13.4112"/>
        <lane index="1" length="82.296" speed="13.4112"/>
        <lane index="2" length="82.296" speed="13.4112"/>
    </edge>
    <edge id="224_224_17_turn" from="224" to="224_17_turn" numLanes="2" speed="17.8816">
        <lane index="0" length="65.532" speed="17.8816"/>
        <lane index="1" length="65.532" speed="17.8816"/>
    </edge>
    <edge id="224_17_turn_17" from="224_17_turn" to="17" numLanes="6" speed="17.8816"/>
    <edge id="10_10_17_turn" from="10" to="10_17_turn" numLanes="2" speed="17.8816">
        <lane index="0" length="64.00800000000001" speed="17.8816"/>
        <lane index="1" length="64.00800000000001" speed="17.8816"/>
    </edge>
    <edge id="10_17_turn_17" from="10_17_turn" to="17" numLanes="6" speed="17.8816"/>
    <edge id="317_317_17_turn" from="317" to="317_17_turn" numLanes="2" speed="13.4112">
        <lane index="0" length="96.012" speed="13.4112"/>
        <lane index="1" length="96.012" speed="13.4112"/>
    </edge>
    <edge id="317_17_turn_17" from="317_17_turn" to="17" numLanes="4" speed="13.4112"/>
    <edge id="496_17" from="496" to="17" numLanes="3" speed="13.4112">
        <lane index="0" length="293.8272" speed="13.4112"/>
        <lane index="1" length="293.8272" speed="13.4112"/>
        <lane index="2" length="293.8272" speed="13.4112"/>
    </edge>
    <edge id="33_33_18_turn" from="33" to="33_18_turn" numLanes="2" speed="15.6464">
        <lane index="0" length="36.576" speed="15.6464"/>
        <lane index="1" length="36.576" speed="15.6464"/>
    </edge>
    <edge id="33_18_turn_18" from="33_18_turn" to="18" numLanes="4" speed="15.6464"/>
    <edge id="224_18" from="224" to="18" numLanes="5" speed="15.6464">
        <lane index="0" length="540.1056" speed="15.6464"/>
        <lane index="1" length="540.1056" speed="15.6464"/>
        <lane index="2" length="540.1056" speed="15.6464"/>
        <lane index="3" length="540.1056" speed="15.6464"/>
        <lane index="4" length="540.1056" speed="15.6464"/>
    </edge>
    <edge id="21_21_18_turn" from="21" to="21_18_turn" numLanes="2" speed="15.6464">
        <lane index="0" length="67.056" speed="15.6464"/>
        <lane index="1" length="67.056" speed="15.6464"/>
    </edge>
    <edge id="21_18_turn_18" from="21_18_turn" to="18" numLanes="5" speed="15.6464"/>
    <edge id="5213_5213_18_turn" from="5213" to="5213_18_turn" numLanes="2" speed="17.8816">
        <lane index="0" length="64.00800000000001" speed="17.8816"/>
        <lane index="1" length="64.00800000000001" speed="17.8816"/>
    </edge>
    <edge id="5213_18_turn_18" from="5213_18_turn" to="18" numLanes="5" speed="17.8816"/>
    <edge id="42_42_19_turn" from="42" to="42_19_turn" numLanes="2" speed="20.1168">
        <lane index="0" length="76.2" speed="20.1168"/>
        <lane index="1" length="76.2" speed="20.1168"/>
    </edge>
    <edge id="42_19_turn_19" from="42_19_turn" to="19" numLanes="3" speed="20.1168"/>
    <edge id="12_12_19_turn" from="12" to="12_19_turn" numLanes="2" speed="20.1168">
        <lane index="0" length="53.34" speed="20.1168"/>
        <lane index="1" length="53.34" speed="20.1168"/>
    </edge>
    <edge id="12_19_turn_19" from="12_19_turn" to="19" numLanes="4" speed="20.1168"/>
    <edge id="393_19" from="393" to="19" numLanes="4" speed="13.4112">
        <lane index="0" length="268.224" speed="13.4112"/>
        <lane index="1" length="268.224" speed="13.4112"/>
        <lane index="2" length="268.224" speed="13.4112"/>
        <lane index="3" length="268.224" speed="13.4112"/>
    </edge>
    <edge id="51_51_20_turn" from="51" to="51_20_turn" numLanes="2" speed="20.1168">
        <lane index="0" length="57.912000000000006" speed="20.1168"/>
        <lane index="1" length="57.912000000000006" speed="20.1168"/>
    </edge>
    <edge id="51_20_turn_20" from="51_20_turn" to="20" numLanes="3" speed="20.1168"/>
    <edge id="42_42_20_turn" from="42" to="42_20_turn" numLanes="2" speed="20.1168">
        <lane index="0" length="83.82000000000001" speed="20.1168"/>
        <lane index="1" length="83.82000000000001" speed="20.1168"/>
    </edge>
    <edge id="42_20_turn_20" from="42_20_turn" to="20" numLanes="5" speed="20.1168"/>
    <edge id="249_249_20_turn" from="249" to="249_20_turn" numLanes="2" speed="17.8816">
        <lane index="0" length="62.484" speed="17.8816"/>
        <lane index="1" length="62.484" speed="17.8816"/>
    </edge>
    <edge id="249_20_turn_20" from="249_20_turn" to="20" numLanes="5" speed="17.8816"/>
    <edge id="37_37_20_turn" from="37" to="37_20_turn" numLanes="2" speed="17.8816">
        <lane index="0" length="60.96" speed="17.8816"/>
        <lane index="1" length="60.96" speed="17.8816"/>
    </edge>
    <edge id="37_20_turn_20" from="37_20_turn" to="20" numLanes="5" speed="17.8816"/>
    <edge id="48_48_21_turn" from="48" to="48_21_turn" numLanes="2" speed="13.4112">
        <lane index="0" length="24.384" speed="13.4112"/>
        <lane index="1" length="24.384" speed="13.4112"/>
    </edge>
    <edge id="48_21_turn_21" from="48_21_turn" to="21" numLanes="3" speed="13.4112"/>
    <edge id="7005_7005_21_turn" from="7005" to="7005_21_turn" numLanes="2" speed="13.4112">
        <lane index="0" length="30.48" speed="13.4112"/>
        <lane index="1" length="30.48" speed="13.4112"/>
    </edge>
    <edge id="7005_21_turn_21" from="7005_21_turn" to="21" numLanes="4" speed="13.4112"/>
    <edge id="59_59_21_turn" from="59" to="59_21_turn" numLanes="2" speed="15.6464">
        <lane index="0" length="60.96" speed="15.6464"/>
        <lane index="1" length="60.96" speed="15.6464"/>
    </edge>
    <edge id="59_21_turn_21" from="59_21_turn" to="21" numLanes="5" speed="15.6464"/>
    <edge id="18_18_21_turn" from="18" to="18_21_turn" numLanes="2" speed="15.6464">
        <lane index="0" length="60.96" speed="15.6464"/>
        <lane index="1" length="60.96" speed="15.6464"/>
    </edge>
    <edge id="18_21_turn_21" from="18_21_turn" to="21" numLanes="5" speed="15.6464"/>
    <edge id="55_22" from="55" to="22" speed="13.4112"/>
    <edge id="7009_7009_22_turn" from="7009" to="7009_22_turn" numLanes="2" speed="17.8816">
        <lane index="0" length="91.44" speed="17.8816"/>
        <lane index="1" length="91.44" speed="17.8816"/>
    </edge>
    <edge id="7009_22_turn_22" from="7009_22_turn" to="22" numLanes="4" speed="17.8816"/>
    <edge id="5217_22" from="5217" to="22" numLanes="3" speed="17.8816">
        <lane index="0" length="52.4256" speed="17.8816"/>
        <lane index="1" length="52.4256" speed="17.8816"/>
        <lane index="2" length="52.4256" speed="17.8816"/>
    </edge>
    <edge id="322_22" from="322" to="22" numLanes="3" speed="17.8816">
        <lane index="0" length="152.4" speed="17.8816"/>
        <lane index="1" length="152.4" speed="17.8816"/>
        <lane index="2" length="152.4" speed="17.8816"/>
    </edge>
    <edge id="5206_5206_23_turn" from="5206" to="5206_23_turn" numLanes="2" speed="13.4112">
        <lane index="0" length="45.72" speed="13.4112"/>
        <lane index="1" length="45.72" speed="13.4112"/>
    </edge>
    <edge id="5206_23_turn_23" from="5206_23_turn" to="23" numLanes="2" speed="13.4112"/>
    <edge id="509_509_23_turn" from="509" to="509_23_turn" numLanes="2" speed="13.4112">
        <lane index="0" length="45.72" speed="13.4112"/>
        <lane index="1" length="45.72" speed="13.4112"/>
    </edge>
    <edge id="509_23_turn_23" from="509_23_turn" to="23" numLanes="3" speed="13.4112"/>
    <edge id="7205_7205_23_turn" from="7205" to="7205_23_turn" numLanes="2" speed="13.4112">
        <lane index="0" length="6.096" speed="13.4112"/>
        <lane index="1" length="6.096" speed="13.4112"/>
    </edge>
    <edge id="7205_23_turn_23" from="7205_23_turn" to="23" numLanes="2" speed="13.4112"/>
    <edge id="27_27_23_turn" from="27" to="27_23_turn" numLanes="2" speed="13.4112">
        <lane index="0" length="33.528" speed="13.4112"/>
        <lane index="1" length="33.528" speed="13.4112"/>
    </edge>
    <edge id="27_23_turn_23" from="27_23_turn" to="23" numLanes="3" speed="13.4112"/>
    <edge id="36_36_24_turn" from="36" to="36_24_turn" numLanes="2" speed="17.8816">
        <lane index="0" length="45.72" speed="17.8816"/>
        <lane index="1" length="45.72" speed="17.8816"/>
    </edge>
    <edge id="36_24_turn_24" from="36_24_turn" to="24" numLanes="4" speed="17.8816"/>
    <edge id="13_13_24_turn" from="13" to="13_24_turn" numLanes="2" speed="17.8816">
        <lane index="0" length="24.384" speed="17.8816"/>
        <lane index="1" length="24.384" speed="17.8816"/>
    </edge>
    <edge id="13_24_turn_24" from="13_24_turn" to="24" numLanes="4" speed="17.8816"/>
    <edge id="7061_7061_24_turn" from="7061" to="7061_24_turn" numLanes="2" speed="13.4112">
        <lane index="0" length="18.288" speed="13.4112"/>
        <lane index="1" length="18.288" speed="13.4112"/>
    </edge>
    <edge id="7061_24_turn_24" from="7061_24_turn" to="24" numLanes="2" speed="13.4112"/>
    <edge id="7201_7201_24_turn" from="7201" to="7201_24_turn" numLanes="2" speed="13.4112">
        <lane index="0" length="9.144" speed="13.4112"/>
        <lane index="1" length="9.144" speed="13.4112"/>
    </edge>
    <edge id="7201_24_turn_24" from="7201_24_turn" to="24" numLanes="2" speed="13.4112"/>
    <edge id="395_395_25_turn" from="395" to="395_25_turn" numLanes="2" speed="13.4112">
        <lane index="0" length="19.812" speed="13.4112"/>
        <lane index="1" length="19.812" speed="13.4112"/>
    </edge>
    <edge id="395_25_turn_25" from="395_25_turn" to="25" numLanes="2" speed="13.4112"/>
    <edge id="396_396_25_turn" from="396" to="396_25_turn" numLanes="2" speed="13.4112">
        <lane index="0" length="28.956000000000003" speed="13.4112"/>
        <lane index="1" length="28.956000000000003" speed="13.4112"/>
    </edge>
    <edge id="396_25_turn_25" from="396_25_turn" to="25" numLanes="2" speed="13.4112"/>
    <edge id="36_36_25_turn" from="36" to="36_25_turn" numLanes="2" speed="17.8816">
        <lane index="0" length="44.196000000000005" speed="17.8816"/>
        <lane index="1" length="44.196000000000005" speed="17.8816"/>
    </edge>
    <edge id="36_25_turn_25" from="36_25_turn" to="25" numLanes="3" speed="17.8816"/>
    <edge id="38_38_25_turn" from="38" to="38_25_turn" numLanes="2" speed="17.8816">
        <lane index="0" length="44.196000000000005" speed="17.8816"/>
        <lane index="1" length="44.196000000000005" speed="17.8816"/>
    </edge>
    <edge id="38_25_turn_25" from="38_25_turn" to="25" numLanes="3" speed="17.8816"/>
    <edge id="514_26" from="514" to="26" speed="13.4112"/>
    <edge id="30_30_27_turn" from="30" to="30_27_turn" numLanes="2" speed="13.4112">
        <lane index="0" length="27.432000000000002" speed="13.4112"/>
        <lane index="1" length="27.432000000000002" speed="13.4112"/>
    </edge>
    <edge id="30_27_turn_27" from="30_27_turn" to="27" numLanes="3" speed="13.4112"/>
    <edge id="28_28_27_turn" from="28" to="28_27_turn" numLanes="2" speed="13.4112">
        <lane index="0" length="42.672000000000004" speed="13.4112"/>
        <lane index="1" length="42.672000000000004" speed="13.4112"/>
    </edge>
    <edge id="28_27_turn_27" from="28_27_turn" to="27" numLanes="3" speed="13.4112"/>
    <edge id="23_23_27_turn" from="23" to="23_27_turn" numLanes="2" speed="13.4112">
        <lane index="0" length="30.48" speed="13.4112"/>
        <lane index="1" length="30.48" speed="13.4112"/>
    </edge>
    <edge id="23_27_turn_27" from="23_27_turn" to="27" numLanes="3" speed="13.4112"/>
    <edge id="512_512_27_turn" from="512" to="512_27_turn" numLanes="2" speed="13.4112">
        <lane index="0" length="30.48" speed="13.4112"/>
        <lane index="1" length="30.48" speed="13.4112"/>
    </edge>
    <edge id="512_27_turn_27" from="512_27_turn" to="27" numLanes="2" speed="13.4112"/>
    <edge id="27_27_28_turn" from="27" to="27_28_turn" numLanes="2" speed="13.4112">
        <lane index="0" length="15.24" speed="13.4112"/>
        <lane index="1" length="15.24" speed="13.4112"/>
    </edge>
    <edge id="27_28_turn_28" from="27_28_turn" to="28" numLanes="2" speed="13.4112"/>
    <edge id="511_511_28_turn" from="511" to="511_28_turn" numLanes="2" speed="13.4112">
        <lane index="0" length="15.24" speed="13.4112"/>
        <lane index="1" length="15.24" speed="13.4112"/>
    </edge>
    <edge id="511_28_turn_28" from="511_28_turn" to="28" numLanes="2" speed="13.4112"/>
    <edge id="7287_28" from="7287" to="28" numLanes="1" speed="13.4112">
        <lane index="0" length="91.7448" speed="13.4112"/>
    </edge>
    <edge id="511_511_29_turn" from="511" to="511_29_turn" numLanes="2" speed="13.4112">
        <lane index="0" length="30.48" speed="13.4112"/>
        <lane index="1" length="30.48" speed="13.4112"/>
    </edge>
    <edge id="511_29_turn_29" from="511_29_turn" to="29" numLanes="3" speed="13.4112"/>
    <edge id="7004_29" from="7004" to="29" numLanes="3" speed="13.4112">
        <lane index="0" length="131.6736" speed="13.4112"/>
        <lane index="1" length="131.6736" speed="13.4112"/>
        <lane index="2" length="131.6736" speed="13.4112"/>
    </edge>
    <edge id="5204_5204_29_turn" from="5204" to="5204_29_turn" numLanes="2" speed="13.4112">
        <lane index="0" length="42.672000000000004" speed="13.4112"/>
        <lane index="1" length="42.672000000000004" speed="13.4112"/>
    </edge>
    <edge id="5204_29_turn_29" from="5204_29_turn" to="29" numLanes="3" speed="13.4112"/>
    <edge id="5205_5205_29_turn" from="5205" to="5205_29_turn" numLanes="2" speed="15.6464">
        <lane index="0" length="68.58" speed="15.6464"/>
        <lane index="1" length="68.58" speed="15.6464"/>
    </edge>
    <edge id="5205_29_turn_29" from="5205_29_turn" to="29" numLanes="3" speed="15.6464"/>
    <edge id="31_31_30_turn" from="31" to="31_30_turn" numLanes="2" speed="13.4112">
        <lane index="0" length="25.908" speed="13.4112"/>
        <lane index="1" length="25.908" speed="13.4112"/>
    </edge>
    <edge id="31_30_turn_30" from="31_30_turn" to="30" numLanes="3" speed="13.4112"/>
    <edge id="27_27_30_turn" from="27" to="27_30_turn" numLanes="2" speed="13.4112">
        <lane index="0" length="24.384" speed="13.4112"/>
        <lane index="1" length="24.384" speed="13.4112"/>
    </edge>
    <edge id="27_30_turn_30" from="27_30_turn" to="30" numLanes="3" speed="13.4112"/>
    <edge id="7215_7215_30_turn" from="7215" to="7215_30_turn" numLanes="2" speed="13.4112">
        <lane index="0" length="32.004000000000005" speed="13.4112"/>