<?xml version="1.0" ?>
<edges>
    <edge id="171_1" from="171" to="1" numLanes="1" speed="13.4112"/>
    <edge id="357_2" from="357" to="2" numLanes="2" speed="15.6464">
        <lane index="0" length="474.2688" speed="15.6464"/>
        <lane index="1" length="474.2688" speed="15.6464"/>
    </edge>
    <edge id="101_2" from="101" to="2" numLanes="2" speed="15.6464">
        <lane index="0" length="808.3296" speed="15.6464"/>
        <lane index="1" length="808.3296" speed="15.6464"/>
    </edge>
    <edge id="356_2" from="356" to="2" numLanes="2" speed="17.8816">
        <lane index="0" length="243.84" speed="17.8816"/>
        <lane index="1" length="243.84" speed="17.8816"/>
    </edge>
    <edge id="3_2" from="3" to="2" numLanes="3" speed="17.8816">
        <lane index="0" length="809.8536" speed="17.8816"/>
        <lane index="1" length="809.8536" speed="17.8816"/>
        <lane index="2" length="809.8536" speed="17.8816"/>
    </edge>
    <edge id="225_3" from="225" to="3" numLanes="5" speed="17.8816">
        <lane index="0" length="499.872" speed="17.8816"/>
        <lane index="1" length="499.872" speed="17.8816"/>
        <lane index="2" length="499.872" speed="17.8816"/>
        <lane index="3" length="499.872" speed="17.8816"/>
        <lane index="4" length="499.872" speed="17.8816"/>
    </edge>
    <edge id="351_3" from="351" to="3" numLanes="5" speed="17.8816">
        <lane index="0" length="640.6896" speed="17.8816"/>
        <lane index="1" length="640.6896" speed="17.8816"/>
        <lane index="2" length="640.6896" speed="17.8816"/>
        <lane index="3" length="640.6896" speed="17.8816"/>
        <lane index="4" length="640.6896" speed="17.8816"/>
    </edge>
    <edge id="2_3" from="2" to="3" numLanes="3" speed="17.8816">
        <lane index="0" length="809.8536" speed="17.8816"/>
        <lane index="1" length="809.8536" speed="17.8816"/>
        <lane index="2" length="809.8536" speed="17.8816"/>
    </edge>
    <edge id="352_3" from="352" to="3" numLanes="3" speed="17.8816">
        <lane index="0" length="811.6824" speed="17.8816"/>
        <lane index="1" length="811.6824" speed="17.8816"/>
        <lane index="2" length="811.6824" speed="17.8816"/>
    </edge>
    <edge id="411_4" from="411" to="4" numLanes="3" speed="13.4112">
        <lane index="0" length="138.684" speed="13.4112"/>
        <lane index="1" length="138.684" speed="13.4112"/>
        <lane index="2" length="138.684" speed="13.4112"/>
    </edge>
    <edge id="378_4" from="378" to="4" speed="13.4112"/>
    <edge id="377_4" from="377" to="4" speed="13.4112"/>
    <edge id="503_5" from="503" to="5" numLanes="5" speed="15.6464">
        <lane index="0" length="286.512" speed="15.6464"/>
        <lane index="1" length="286.512" speed="15.6464"/>
        <lane index="2" length="286.512" speed="15.6464"/>
        <lane index="3" length="286.512" speed="15.6464"/>
        <lane index="4" length="286.512" speed="15.6464"/>
    </edge>
    <edge id="312_5" from="312" to="5" numLanes="5" speed="15.6464">
        <lane index="0" length="185.3184" speed="15.6464"/>
        <lane index="1" length="185.3184" speed="15.6464"/>
        <lane index="2" length="185.3184" speed="15.6464"/>
        <lane index="3" length="185.3184" speed="15.6464"/>
        <lane index="4" length="185.3184" speed="15.6464"/>
    </edge>
    <edge id="284_5" from="284" to="5" numLanes="3" speed="13.4112">
        <lane index="0" length="122.8344" speed="13.4112"/>
        <lane index="1" length="122.8344" speed="13.4112"/>
        <lane index="2" length="122.8344" speed="13.4112"/>
    </edge>
    <edge id="313_5" from="313" to="5" numLanes="4" speed="13.4112">
        <lane index="0" length="362.10240000000005" speed="13.4112"/>
        <lane index="1" length="362.10240000000005" speed="13.4112"/>
        <lane index="2" length="362.10240000000005" speed="13.4112"/>
        <lane index="3" length="362.10240000000005" speed="13.4112"/>
    </edge>
    <edge id="7002_6" from="7002" to="6" numLanes="5" speed="20.1168">
        <lane index="0" length="366.9792" speed="20.1168"/>
        <lane index="1" length="366.9792" speed="20.1168"/>
        <lane index="2" length="366.9792" speed="20.1168"/>
        <lane index="3" length="366.9792" speed="20.1168"/>
        <lane index="4" length="366.9792" speed="20.1168"/>
    </edge>
    <edge id="306_6" from="306" to="6" numLanes="5" speed="20.1168">
        <lane index="0" length="160.02" speed="20.1168"/>
        <lane index="1" length="160.02" speed="20.1168"/>
        <lane index="2" length="160.02" speed="20.1168"/>
        <lane index="3" length="160.02" speed="20.1168"/>
        <lane index="4" length="160.02" speed="20.1168"/>
    </edge>
    <edge id="339_6" from="339" to="6" numLanes="4" speed="13.4112">
        <lane index="0" length="245.9736" speed="13.4112"/>
        <lane index="1" length="245.9736" speed="13.4112"/>
        <lane index="2" length="245.9736" speed="13.4112"/>
        <lane index="3" length="245.9736" speed="13.4112"/>
    </edge>
    <edge id="343_6" from="343" to="6" speed="13.4112"/>
    <edge id="10_7" from="10" to="7" numLanes="4" speed="17.8816">
        <lane index="0" length="415.7472" speed="17.8816"/>
        <lane index="1" length="415.7472" speed="17.8816"/>
        <lane index="2" length="415.7472" speed="17.8816"/>
        <lane index="3" length="415.7472" speed="17.8816"/>
    </edge>
    <edge id="225_7" from="225" to="7" numLanes="4" speed="17.8816">
        <lane index="0" length="299.3136" speed="17.8816"/>
        <lane index="1" length="299.3136" speed="17.8816"/>
        <lane index="2" length="299.3136" speed="17.8816"/>
        <lane index="3" length="299.3136" speed="17.8816"/>
    </edge>
    <edge id="484_7" from="484" to="7" numLanes="3" speed="13.4112">
        <lane index="0" length="161.8488" speed="13.4112"/>
        <lane index="1" length="161.8488" speed="13.4112"/>
        <lane index="2" length="161.8488" speed="13.4112"/>
    </edge>
    <edge id="326_7" from="326" to="7" numLanes="3" speed="13.4112">
        <lane index="0" length="396.8496" speed="13.4112"/>
        <lane index="1" length="396.8496" speed="13.4112"/>
        <lane index="2" length="396.8496" speed="13.4112"/>
    </edge>
    <edge id="329_8" from="329" to="8" numLanes="5" speed="15.6464">
        <lane index="0" length="104.2416" speed="15.6464"/>
        <lane index="1" length="104.2416" speed="15.6464"/>
        <lane index="2" length="104.2416" speed="15.6464"/>
        <lane index="3" length="104.2416" speed="15.6464"/>
        <lane index="4" length="104.2416" speed="15.6464"/>
    </edge>
    <edge id="314_8" from="314" to="8" numLanes="5" speed="15.6464">
        <lane index="0" length="361.79760000000005" speed="15.6464"/>
        <lane index="1" length="361.79760000000005" speed="15.6464"/>
        <lane index="2" length="361.79760000000005" speed="15.6464"/>
        <lane index="3" length="361.79760000000005" speed="15.6464"/>
        <lane index="4" length="361.79760000000005" speed="15.6464"/>
    </edge>
    <edge id="507_8" from="507" to="8" numLanes="5" speed="20.1168">
        <lane index="0" length="197.2056" speed="20.1168"/>
        <lane index="1" length="197.2056" speed="20.1168"/>
        <lane index="2" length="197.2056" speed="20.1168"/>
        <lane index="3" length="197.2056" speed="20.1168"/>
        <lane index="4" length="197.2056" speed="20.1168"/>
    </edge>
    <edge id="320_8" from="320" to="8" numLanes="4" speed="20.1168">
        <lane index="0" length="547.4208" speed="20.1168"/>
        <lane index="1" length="547.4208" speed="20.1168"/>
        <lane index="2" length="547.4208" speed="20.1168"/>
        <lane index="3" length="547.4208" speed="20.1168"/>
    </edge>
    <edge id="349_9" from="349" to="9" numLanes="3" speed="15.6464">
        <lane index="0" length="144.78" speed="15.6464"/>
        <lane index="1" length="144.78" speed="15.6464"/>
        <lane index="2" length="144.78" speed="15.6464"/>
    </edge>
    <edge id="350_9" from="350" to="9" numLanes="3" speed="15.6464">
        <lane index="0" length="167.94480000000001" speed="15.6464"/>
        <lane index="1" length="167.94480000000001" speed="15.6464"/>
        <lane index="2" length="167.94480000000001" speed="15.6464"/>
    </edge>
    <edge id="319_9" from="319" to="9" numLanes="4" speed="20.1168">
        <lane index="0" length="363.32160000000005" speed="20.1168"/>
        <lane index="1" length="363.32160000000005" speed="20.1168"/>
        <lane index="2" length="363.32160000000005" speed="20.1168"/>
        <lane index="3" length="363.32160000000005" speed="20.1168"/>
    </edge>
    <edge id="10_9" from="10" to="9" numLanes="3" speed="17.8816">
        <lane index="0" length="417.2712" speed="17.8816"/>
        <lane index="1" length="417.2712" speed="17.8816"/>
        <lane index="2" length="417.2712" speed="17.8816"/>
    </edge>
    <edge id="17_10" from="17" to="10" numLanes="5" speed="17.8816">
        <lane index="0" length="467.86800000000005" speed="17.8816"/>
        <lane index="1" length="467.86800000000005" speed="17.8816"/>
        <lane index="2" length="467.86800000000005" speed="17.8816"/>
        <lane index="3" length="467.86800000000005" speed="17.8816"/>
        <lane index="4" length="467.86800000000005" speed="17.8816"/>
    </edge>
    <edge id="7_10" from="7" to="10" numLanes="5" speed="17.8816">
        <lane index="0" length="415.7472" speed="17.8816"/>
        <lane index="1" length="415.7472" speed="17.8816"/>
        <lane index="2" length="415.7472" speed="17.8816"/>
        <lane index="3" length="415.7472" speed="17.8816"/>
        <lane index="4" length="415.7472" speed="17.8816"/>
    </edge>
    <edge id="9_10" from="9" to="10" numLanes="5" speed="17.8816">
        <lane index="0" length="417.2712" speed="17.8816"/>
        <lane index="1" length="417.2712" speed="17.8816"/>
        <lane index="2" length="417.2712" speed="17.8816"/>
        <lane index="3" length="417.2712" speed="17.8816"/>
        <lane index="4" length="417.2712" speed="17.8816"/>
    </edge>
    <edge id="11_10" from="11" to="10" numLanes="5" speed="17.8816">
        <lane index="0" length="779.0688" speed="17.8816"/>
        <lane index="1" length="779.0688" speed="17.8816"/>
        <lane index="2" length="779.0688" speed="17.8816"/>
        <lane index="3" length="779.0688" speed="17.8816"/>
        <lane index="4" length="779.0688" speed="17.8816"/>
    </edge>
    <edge id="173_11" from="173" to="11" numLanes="2" speed="13.4112">
        <lane index="0" length="189.2808" speed="13.4112"/>
        <lane index="1" length="189.2808" speed="13.4112"/>
    </edge>
    <edge id="327_11" from="327" to="11" numLanes="2" speed="13.4112">
        <lane index="0" length="411.1752" speed="13.4112"/>
        <lane index="1" length="411.1752" speed="13.4112"/>
    </edge>
    <edge id="10_11" from="10" to="11" numLanes="3" speed="17.8816">
        <lane index="0" length="779.0688" speed="17.8816"/>
        <lane index="1" length="779.0688" speed="17.8816"/>
        <lane index="2" length="779.0688" speed="17.8816"/>
    </edge>
    <edge id="12_11" from="12" to="11" numLanes="3" speed="17.8816">
        <lane index="0" length="784.86" speed="17.8816"/>
        <lane index="1" length="784.86" speed="17.8816"/>
        <lane index="2" length="784.86" speed="17.8816"/>
    </edge>
    <edge id="19_12" from="19" to="12" numLanes="4" speed="20.1168">
        <lane index="0" length="405.0792" speed="20.1168"/>
        <lane index="1" length="405.0792" speed="20.1168"/>
        <lane index="2" length="405.0792" speed="20.1168"/>
        <lane index="3" length="405.0792" speed="20.1168"/>
    </edge>
    <edge id="328_12" from="328" to="12" numLanes="3" speed="20.1168">
        <lane index="0" length="705.3072000000001" speed="20.1168"/>
        <lane index="1" length="705.3072000000001" speed="20.1168"/>
        <lane index="2" length="705.3072000000001" speed="20.1168"/>
    </edge>
    <edge id="11_12" from="11" to="12" numLanes="3" speed="17.8816">
        <lane index="0" length="784.86" speed="17.8816"/>
        <lane index="1" length="784.86" speed="17.8816"/>
        <lane index="2" length="784.86" speed="17.8816"/>
    </edge>
    <edge id="24_13" from="24" to="13" numLanes="6" speed="17.8816">
        <lane index="0" length="448.05600000000004" speed="17.8816"/>
        <lane index="1" length="448.05600000000004" speed="17.8816"/>
        <lane index="2" length="448.05600000000004" speed="17.8816"/>
        <lane index="3" length="448.05600000000004" speed="17.8816"/>
        <lane index="4" length="448.05600000000004" speed="17.8816"/>
        <lane index="5" length="448.05600000000004" speed="17.8816"/>
    </edge>
    <edge id="7002_13" from="7002" to="13" numLanes="6" speed="20.1168">
        <lane index="0" length="470.3064" speed="20.1168"/>
        <lane index="1" length="470.3064" speed="20.1168"/>
        <lane index="2" length="470.3064" speed="20.1168"/>
        <lane index="3" length="470.3064" speed="20.1168"/>
        <lane index="4" length="470.3064" speed="20.1168"/>
        <lane index="5" length="470.3064" speed="20.1168"/>
    </edge>
    <edge id="7001_13" from="7001" to="13" numLanes="5" speed="17.8816">
        <lane index="0" length="628.8024" speed="17.8816"/>
        <lane index="1" length="628.8024" speed="17.8816"/>
        <lane index="2" length="628.8024" speed="17.8816"/>
        <lane index="3" length="628.8024" speed="17.8816"/>
        <lane index="4" length="628.8024" speed="17.8816"/>
    </edge>
    <edge id="486_13" from="486" to="13" numLanes="5" speed="17.8816">
        <lane index="0" length="145.3896" speed="17.8816"/>
        <lane index="1" length="145.3896" speed="17.8816"/>
        <lane index="2" length="145.3896" speed="17.8816"/>
        <lane index="3" length="145.3896" speed="17.8816"/>
        <lane index="4" length="145.3896" speed="17.8816"/>
    </edge>
    <edge id="5230_14" from="5230" to="14" numLanes="2" speed="13.4112">
        <lane index="0" length="908.3040000000001" speed="13.4112"/>
        <lane index="1" length="908.3040000000001" speed="13.4112"/>
    </edge>
    <edge id="7003_14" from="7003" to="14" numLanes="3" speed="13.4112">
        <lane index="0" length="379.7808" speed="13.4112"/>
        <lane index="1" length="379.7808" speed="13.4112"/>
        <lane index="2" length="379.7808" speed="13.4112"/>
    </edge>
    <edge id="486_14" from="486" to="14" numLanes="4" speed="17.8816">
        <lane index="0" length="670.8648000000001" speed="17.8816"/>
        <lane index="1" length="670.8648000000001" speed="17.8816"/>
        <lane index="2" length="670.8648000000001" speed="17.8816"/>
        <lane index="3" length="670.8648000000001" speed="17.8816"/>
    </edge>
    <edge id="247_14" from="247" to="14" numLanes="3" speed="13.4112">
        <lane index="0" length="358.44480000000004" speed="13.4112"/>
        <lane index="1" length="358.44480000000004" speed="13.4112"/>
        <lane index="2" length="358.44480000000004" speed="13.4112"/>
    </edge>
    <edge id="138_15" from="138" to="15" numLanes="1" speed="13.4112"/>
    <edge id="509_16" from="509" to="16" numLanes="4" speed="13.4112">
        <lane index="0" length="224.94240000000002" speed="13.4112"/>
        <lane index="1" length="224.94240000000002" speed="13.4112"/>
        <lane index="2" length="224.94240000000002" speed="13.4112"/>
        <lane index="3" length="224.94240000000002" speed="13.4112"/>
    </edge>
    <edge id="143_16" from="143" to="16" numLanes="3" speed="13.4112">
        <lane index="0" length="51.5112" speed="13.4112"/>
        <lane index="1" length="51.5112" speed="13.4112"/>
        <lane index="2" length="51.5112" speed="13.4112"/>
    </edge>
    <edge id="7203_16" from="7203" to="16" numLanes="1" speed="13.4112">
        <lane index="0" length="53.644800000000004" speed="13.4112"/>
    </edge>
    <edge id="5204_16" from="5204" to="16" numLanes="3" speed="13.4112">
        <lane index="0" length="82.296" speed="13.4112"/>
        <lane index="1" length="82.296" speed="13.4112"/>
        <lane index="2" length="82.296" speed="13.4112"/>
    </edge>
    <edge id="224_17" from="224" to="17" numLanes="6" speed="17.8816">
        <lane index="0" length="273.1008" speed="17.8816"/>
        <lane index="1" length="273.1008" speed="17.8816"/>
        <lane index="2" length="273.1008" speed="17.8816"/>
        <lane index="3" length="273.1008" speed="17.8816"/>
        <lane index="4" length="273.1008" speed="17.8816"/>
        <lane index="5" length="273.1008" speed="17.8816"/>
    </edge>
    <edge id="10_17" from="10" to="17" numLanes="6" speed="17.8816">
        <lane index="0" length="467.86800000000005" speed="17.8816"/>
        <lane index="1" length="467.86800000000005" speed="17.8816"/>
        <lane index="2" length="467.86800000000005" speed="17.8816"/>
        <lane index="3" length="467.86800000000005" speed="17.8816"/>
        <lane index="4" length="467.86800000000005" speed="17.8816"/>
        <lane index="5" length="467.86800000000005" speed="17.8816"/>
    </edge>
    <edge id="317_17" from="317" to="17" numLanes="4" speed="13.4112">
        <lane index="0" length="313.6392" speed="13.4112"/>
        <lane index="1" length="313.6392" speed="13.4112"/>
        <lane index="2" length="313.6392" speed="13.4112"/>
        <lane index="3" length="313.6392" speed="13.4112"/>
    </edge>
    <edge id="496_17" from="496" to="17" numLanes="3" speed="13.4112">
        <lane index="0" length="293.8272" speed="13.4112"/>
        <lane index="1" length="293.8272" speed="13.4112"/>
        <lane index="2" length="293.8272" speed="13.4112"/>
    </edge>
    <edge id="33_18" from="33" to="18" numLanes="4" speed="15.6464">
        <lane index="0" length="474.5736" speed="15.6464"/>
        <lane index="1" length="474.5736" speed="15.6464"/>
        <lane index="2" length="474.5736" speed="15.6464"/>
        <lane index="3" length="474.5736" speed="15.6464"/>
    </edge>
    <edge id="224_18" from="224" to="18" numLanes="5" speed="15.6464">
        <lane index="0" length="540.1056" speed="15.6464"/>
        <lane index="1" length="540.1056" speed="15.6464"/>
        <lane index="2" length="540.1056" speed="15.6464"/>
        <lane index="3" length="540.1056" speed="15.6464"/>
        <lane index="4" length="540.1056" speed="15.6464"/>
    </edge>
    <edge id="21_18" from="21" to="18" numLanes="5" speed="15.6464">
        <lane index="0" length="262.7376" speed="15.6464"/>
        <lane index="1" length="262.7376" speed="15.6464"/>
        <lane index="2" length="262.7376" speed="15.6464"/>
        <lane index="3" length="262.7376" speed="15.6464"/>
        <lane index="4" length="262.7376" speed="15.6464"/>
    </edge>
    <edge id="5213_18" from="5213" to="18" numLanes="5" speed="17.8816">
        <lane index="0" length="339.85200000000003" speed="17.8816"/>
        <lane index="1" length="339.85200000000003" speed="17.8816"/>
        <lane index="2" length="339.85200000000003" speed="17.8816"/>
        <lane index="3" length="339.85200000000003" speed="17.8816"/>
        <lane index="4" length="339.85200000000003" speed="17.8816"/>
    </edge>
    <edge id="42_19" from="42" to="19" numLanes="3" speed="20.1168">
        <lane index="0" length="523.3416" speed="20.1168"/>
        <lane index="1" length="523.3416" speed="20.1168"/>
        <lane index="2" length="523.3416" speed="20.1168"/>
    </edge>
    <edge id="12_19" from="12" to="19" numLanes="4" speed="20.1168">
        <lane index="0" length="405.0792" speed="20.1168"/>
        <lane index="1" length="405.0792" speed="20.1168"/>
        <lane index="2" length="405.0792" speed="20.1168"/>
        <lane index="3" length="405.0792" speed="20.1168"/>
    </edge>
    <edge id="393_19" from="393" to="19" numLanes="4" speed="13.4112">
        <lane index="0" length="268.224" speed="13.4112"/>
        <lane index="1" length="268.224" speed="13.4112"/>
        <lane index="2" length="268.224" speed="13.4112"/>
        <lane index="3" length="268.224" speed="13.4112"/>
    </edge>
    <edge id="51_20" from="51" to="20" numLanes="3" speed="20.1168">
        <lane index="0" length="798.576" speed="20.1168"/>
        <lane index="1" length="798.576" speed="20.1168"/>
        <lane index="2" length="798.576" speed="20.1168"/>
    </edge>
    <edge id="42_20" from="42" to="20" numLanes="5" speed="20.1168">
        <lane index="0" length="316.992" speed="20.1168"/>
        <lane index="1" length="316.992" speed="20.1168"/>
        <lane index="2" length="316.992" speed="20.1168"/>
        <lane index="3" length="316.992" speed="20.1168"/>
        <lane index="4" length="316.992" speed="20.1168"/>
    </edge>
    <edge id="249_20" from="249" to="20" numLanes="5" speed="17.8816">
        <lane index="0" length="801.9288" speed="17.8816"/>
        <lane index="1" length="801.9288" speed="17.8816"/>
        <lane index="2" length="801.9288" speed="17.8816"/>
        <lane index="3" length="801.9288" speed="17.8816"/>
        <lane index="4" length="801.9288" speed="17.8816"/>
    </edge>
    <edge id="37_20" from="37" to="20" numLanes="5" speed="17.8816">
        <lane index="0" length="402.336" speed="17.8816"/>
        <lane index="1" length="402.336" speed="17.8816"/>
        <lane index="2" length="402.336" speed="17.8816"/>
        <lane index="3" length="402.336" speed="17.8816"/>
        <lane index="4" length="402.336" speed="17.8816"/>
    </edge>
    <edge id="48_21" from="48" to="21" numLanes="3" speed="13.4112">
        <lane index="0" length="481.584" speed="13.4112"/>
        <lane index="1" length="481.584" speed="13.4112"/>
        <lane index="2" length="481.584" speed="13.4112"/>
    </edge>
    <edge id="7005_21" from="7005" to="21" numLanes="4" speed="13.4112">
        <lane index="0" length="168.24960000000002" speed="13.4112"/>
        <lane index="1" length="168.24960000000002" speed="13.4112"/>
        <lane index="2" length="168.24960000000002" speed="13.4112"/>
        <lane index="3" length="168.24960000000002" speed="13.4112"/>
    </edge>
    <edge id="59_21" from="59" to="21" numLanes="5" speed="15.6464">
        <lane index="0" length="202.0824" speed="15.6464"/>
        <lane index="1" length="202.0824" speed="15.6464"/>
        <lane index="2" length="202.0824" speed="15.6464"/>
        <lane index="3" length="202.0824" speed="15.6464"/>
        <lane index="4" length="202.0824" speed="15.6464"/>
    </edge>
    <edge id="18_21" from="18" to="21" numLanes="5" speed="15.6464">
        <lane index="0" length="262.7376" speed="15.6464"/>
        <lane index="1" length="262.7376" speed="15.6464"/>
        <lane index="2" length="262.7376" speed="15.6464"/>
        <lane index="3" length="262.7376" speed="15.6464"/>
        <lane index="4" length="262.7376" speed="15.6464"/>
    </edge>
    <edge id="55_22" from="55" to="22" speed="13.4112"/>
    <edge id="7009_22" from="7009" to="22" numLanes="4" speed="17.8816">
        <lane index="0" length="306.324" speed="17.8816"/>
        <lane index="1" length="306.324" speed="17.8816"/>
        <lane index="2" length="306.324" speed="17.8816"/>
        <lane index="3" length="306.324" speed="17.8816"/>
    </edge>
    <edge id="5217_22" from="5217" to="22" numLanes="3" speed="17.8816">
        <lane index="0" length="52.4256" speed="17.8816"/>
        <lane index="1" length="52.4256" speed="17.8816"/>
        <lane index="2" length="52.4256" speed="17.8816"/>
    </edge>
    <edge id="322_22" from="322" to="22" numLanes="3" speed="17.8816">
        <lane index="0" length="152.4" speed="17.8816"/>
        <lane index="1" length="152.4" speed="17.8816"/>
        <lane index="2" length="152.4" speed="17.8816"/>
    </edge>
    <edge id="5206_23" from="5206" to="23" numLanes="2" speed="13.4112">
        <lane index="0" length="106.68" speed="13.4112"/>
        <lane index="1" length="106.68" speed="13.4112"/>
    </edge>
    <edge id="509_23" from="509" to="23" numLanes="3" speed="13.4112">
        <lane index="0" length="217.32240000000002" speed="13.4112"/>
        <lane index="1" length="217.32240000000002" speed="13.4112"/>
        <lane index="2" length="217.32240000000002" speed="13.4112"/>
    </edge>
    <edge id="7205_23" from="7205" to="23" numLanes="2" speed="13.4112">
        <lane index="0" length="350.52000000000004" speed="13.4112"/>
        <lane index="1" length="350.52000000000004" speed="13.4112"/>
    </edge>
    <edge id="27_23" from="27" to="23" numLanes="3" speed="13.4112">
        <lane index="0" length="310.896" speed="13.4112"/>
        <lane index="1" length="310.896" speed="13.4112"/>
        <lane index="2" length="310.896" speed="13.4112"/>
    </edge>
    <edge id="36_24" from="36" to="24" numLanes="4" speed="17.8816">
        <lane index="0" length="399.288" speed="17.8816"/>
        <lane index="1" length="399.288" speed="17.8816"/>
        <lane index="2" length="399.288" speed="17.8816"/>
        <lane index="3" length="399.288" speed="17.8816"/>
    </edge>
    <edge id="13_24" from="13" to="24" numLanes="4" speed="17.8816">
        <lane index="0" length="448.05600000000004" speed="17.8816"/>
        <lane index="1" length="448.05600000000004" speed="17.8816"/>
        <lane index="2" length="448.05600000000004" speed="17.8816"/>
        <lane index="3" length="448.05600000000004" speed="17.8816"/>
    </edge>
    <edge id="7061_24" from="7061" to="24" numLanes="2" speed="13.4112">
        <lane index="0" length="243.84" speed="13.4112"/>
        <lane index="1" length="243.84" speed="13.4112"/>
    </edge>
    <edge id="7201_24" from="7201" to="24" numLanes="2" speed="13.4112">
        <lane index="0" length="243.84" speed="13.4112"/>
        <lane index="1" length="243.84" speed="13.4112"/>
    </edge>
    <edge id="395_25" from="395" to="25" numLanes="2" speed="13.4112">
        <lane index="0" length="168.24960000000002" speed="13.4112"/>
        <lane index="1" length="168.24960000000002" speed="13.4112"/>
    </edge>
    <edge id="396_25" from="396" to="25" numLanes="2" speed="13.4112">
        <lane index="0" length="165.2016" speed="13.4112"/>
        <lane index="1" length="165.2016" speed="13.4112"/>
    </edge>
    <edge id="36_25" from="36" to="25" numLanes="3" speed="17.8816">
        <lane index="0" length="412.0896" speed="17.8816"/>
        <lane index="1" length="412.0896" speed="17.8816"/>
        <lane index="2" length="412.0896" speed="17.8816"/>
    </edge>
    <edge id="38_25" from="38" to="25" numLanes="3" speed="17.8816">
        <lane index="0" length="383.4384" speed="17.8816"/>
        <lane index="1" length="383.4384" speed="17.8816"/>
        <lane index="2" length="383.4384" speed="17.8816"/>
    </edge>
    <edge id="514_26" from="514" to="26" speed="13.4112"/>
    <edge id="30_27" from="30" to="27" numLanes="3" speed="13.4112">
        <lane index="0" length="124.968" speed="13.4112"/>
        <lane index="1" length="124.968" speed="13.4112"/>
        <lane index="2" length="124.968" speed="13.4112"/>
    </edge>
    <edge id="28_27" from="28" to="27" numLanes="3" speed="13.4112">
        <lane index="0" length="109.72800000000001" speed="13.4112"/>
        <lane index="1" length="109.72800000000001" speed="13.4112"/>
        <lane index="2" length="109.72800000000001" speed="13.4112"/>
    </edge>
    <edge id="23_27" from="23" to="27" numLanes="3" speed="13.4112">
        <lane index="0" length="310.896" speed="13.4112"/>
        <lane index="1" length="310.896" speed="13.4112"/>
        <lane index="2" length="310.896" speed="13.4112"/>
    </edge>
    <edge id="512_27" from="512" to="27" numLanes="2" speed="13.4112">
        <lane index="0" length="469.392" speed="13.4112"/>
        <lane index="1" length="469.392" speed="13.4112"/>
    </edge>
    <edge id="27_28" from="27" to="28" numLanes="2" speed="13.4112">
        <lane index="0" length="109.72800000000001" speed="13.4112"/>
        <lane index="1" length="109.72800000000001" speed="13.4112"/>
    </edge>
    <edge id="511_28" from="511" to="28" numLanes="2" speed="13.4112">
        <lane index="0" length="100.584" speed="13.4112"/>
        <lane index="1" length="100.584" speed="13.4112"/>
    </edge>
    <edge id="7287_28" from="7287" to="28" numLanes="1" speed="13.4112">
        <lane index="0" length="91.7448" speed="13.4112"/>
    </edge>
    <edge id="511_29" from="511" to="29" numLanes="3" speed="13.4112">
        <lane index="0" length="246.888" speed="13.4112"/>
        <lane index="1" length="246.888" speed="13.4112"/>
        <lane index="2" length="246.888" speed="13.4112"/>
    </edge>
    <edge id="7004_29" from="7004" to="29" numLanes="3" speed="13.4112">
        <lane index="0" length="131.6736" speed="13.4112"/>
        <lane index="1" length="131.6736" speed="13.4112"/>
        <lane index="2" length="131.6736" speed="13.4112"/>
    </edge>
    <edge id="5204_29" from="5204" to="29" numLanes="3" speed="13.4112">
        <lane index="0" length="179.52720000000002" speed="13.4112"/>
        <lane index="1" length="179.52720000000002" speed="13.4112"/>
        <lane index="2" length="179.52720000000002" speed="13.4112"/>
    </edge>
    <edge id="5205_29" from="5205" to="29" numLanes="3" speed="15.6464">
        <lane index="0" length="139.2936" speed="15.6464"/>
        <lane index="1" length="139.2936" speed="15.6464"/>
        <lane index="2" length="139.2936" speed="15.6464"/>
    </edge>
    <edge id="31_30" from="31" to="30" numLanes="3" speed="13.4112">
        <lane index="0" length="128.01600000000002" speed="13.4112"/>
        <lane index="1" length="128.01600000000002" speed="13.4112"/>
        <lane index="2" length="128.01600000000002" speed="13.4112"/>
    </edge>
    <edge id="27_30" from="27" to="30" numLanes="3" speed="13.4112">