<?xml version="1.0" ?>
<additional>
    <inductionLoop id="357_2_0_detector" lane="357_2_0" pos="-8" friendlyPos="true" file="output_loop_detector_202504171704.xml"/>
    <inductionLoop id="357_2_1_detector" lane="357_2_1" pos="-8" friendlyPos="true" file="output_loop_detector_202504171704.xml"/>
    <inductionLoop id="101_2_0_detector" lane="101_2_0" pos="-8" friendlyPos="true" file="output_loop_detector_202504171704.xml"/>
    <inductionLoop id="101_2_1_detector" lane="101_2_1" pos="-8" friendlyPos="true" file="output_loop_detector_202504171704.xml"/>
    <inductionLoop id="356_2_0_detector" lane="356_2_0" pos="-8" friendlyPos="true" file="output_loop_detector_202504171704.xml"/>
    <inductionLoop id="356_2_1_detector" lane="356_2_1" pos="-8" friendlyPos="true" file="output_loop_detector_202504171704.xml"/>
    <inductionLoop id="3_2_0_detector" lane="3_2_0" pos="-8" friendlyPos="true" file="output_loop_detector_202504171704.xml"/>
    <inductionLoop id="3_2_1_detector" lane="3_2_1" pos="-8" friendlyPos="true" file="output_loop_detector_202504171704.xml"/>
    <inductionLoop id="3_2_2_detector" lane="3_2_2" pos="-8" friendlyPos="true" file="output_loop_detector_202504171704.xml"/>
    <inductionLoop id="225_3_0_detector" lane="225_3_0" pos="-8" friendlyPos="true" file="output_loop_detector_202504171704.xml"/>
    <inductionLoop id="225_3_1_detector" lane="225_3_1" pos="-8" friendlyPos="true" file="output_loop_detector_202504171704.xml"/>
    <inductionLoop id="225_3_2_detector" lane="225_3_2" pos="-8" friendlyPos="true" file="output_loop_detector_202504171704.xml"/>
    <inductionLoop id="225_3_3_detector" lane="225_3_3" pos="-8" friendlyPos="true" file="output_loop_detector_202504171704.xml"/>
    <inductionLoop id="225_3_4_detector" lane="225_3_4" pos="-8" friendlyPos="true" file="output_loop_detector_202504171704.xml"/>
    <inductionLoop id="351_3_0_detector" lane="351_3_0" pos="-8" friendlyPos="true" file="output_loop_detector_202504171704.xml"/>
    <inductionLoop id="351_3_1_detector" lane="351_3_1" pos="-8" friendlyPos="true" file="output_loop_detector_202504171704.xml"/>
    <inductionLoop id="351_3_2_detector" lane="351_3_2" pos="-8" friendlyPos="true" file="output_loop_detector_202504171704.xml"/>
    <inductionLoop id="351_3_3_detector" lane="351_3_3" pos="-8" friendlyPos="true" file="output_loop_detector_202504171704.xml"/>
    <inductionLoop id="351_3_4_detector" lane="351_3_4" pos="-8" friendlyPos="true" file="output_loop_detector_202504171704.xml"/>
    <inductionLoop id="2_3_0_detector" lane="2_3_0" pos="-8" friendlyPos="true" file="output_loop_detector_202504171704.xml"/>
    <inductionLoop id="2_3_1_detector" lane="2_3_1" pos="-8" friendlyPos="true" file="output_loop_detector_202504171704.xml"/>
    <inductionLoop id="2_3_2_detector" lane="2_3_2" pos="-8" friendlyPos="true" file="output_loop_detector_202504171704.xml"/>
    <inductionLoop id="352_3_0_detector" lane="352_3_0" pos="-8" friendlyPos="true" file="output_loop_detector_202504171704.xml"/>
    <inductionLoop id="352_3_1_detector" lane="352_3_1" pos="-8" friendlyPos="true" file="output_loop_detector_202504171704.xml"/>
    <inductionLoop id="352_3_2_detector" lane="352_3_2" pos="-8" friendlyPos="true" file="output_loop_detector_202504171704.xml"/>
    <inductionLoop id="503_5_0_detector" lane="503_5_0" pos="-8" friendlyPos="true" file="output_loop_detector_202504171704.xml"/>
    <inductionLoop id="503_5_1_detector" lane="503_5_1" pos="-8" friendlyPos="true" file="output_loop_detector_202504171704.xml"/>
    <inductionLoop id="503_5_2_detector" lane="503_5_2" pos="-8" friendlyPos="true" file="output_loop_detector_202504171704.xml"/>
    <inductionLoop id="503_5_3_detector" lane="503_5_3" pos="-8" friendlyPos="true" file="output_loop_detector_202504171704.xml"/>
    <inductionLoop id="503_5_4_detector" lane="503_5_4" pos="-8" friendlyPos="true" file="output_loop_detector_202504171704.xml"/>
    <inductionLoop id="312_5_0_detector" lane="312_5_0" pos="-8" friendlyPos="true" file="output_loop_detector_202504171704.xml"/>
    <inductionLoop id="312_5_1_detector" lane="312_5_1" pos="-8" friendlyPos="true" file="output_loop_detector_202504171704.xml"/>
    <inductionLoop id="312_5_2_detector" lane="312_5_2" pos="-8" friendlyPos="true" file="output_loop_detector_202504171704.xml"/>
    <inductionLoop id="312_5_3_detector" lane="312_5_3" pos="-8" friendlyPos="true" file="output_loop_detector_202504171704.xml"/>
    <inductionLoop id="312_5_4_detector" lane="312_5_4" pos="-8" friendlyPos="true" file="output_loop_detector_202504171704.xml"/>
    <inductionLoop id="284_5_0_detector" lane="284_5_0" pos="-8" friendlyPos="true" file="output_loop_detector_202504171704.xml"/>
    <inductionLoop id="284_5_1_detector" lane="284_5_1" pos="-8" friendlyPos="true" file="output_loop_detector_202504171704.xml"/>
    <inductionLoop id="284_5_2_detector" lane="284_5_2" pos="-8" friendlyPos="true" file="output_loop_detector_202504171704.xml"/>
    <inductionLoop id="313_5_0_detector" lane="313_5_0" pos="-8" friendlyPos="true" file="output_loop_detector_202504171704.xml"/>
    <inductionLoop id="313_5_1_detector" lane="313_5_1" pos="-8" friendlyPos="true" file="output_loop_detector_202504171704.xml"/>
    <inductionLoop id="313_5_2_detector" lane="313_5_2" pos="-8" friendlyPos="true" file="output_loop_detector_202504171704.xml"/>
    <inductionLoop id="313_5_3_detector" lane="313_5_3" pos="-8" friendlyPos="true" file="output_loop_detector_202504171704.xml"/>
    <inductionLoop id="7002_6_0_detector" lane="7002_6_0" pos="-8" friendlyPos="true" file="output_loop_detector_202504171704.xml"/>
    <inductionLoop id="7002_6_1_detector" lane="7002_6_1" pos="-8" friendlyPos="true" file="output_loop_detector_202504171704.xml"/>
    <inductionLoop id="7002_6_2_detector" lane="7002_6_2" pos="-8" friendlyPos="true" file="output_loop_detector_202504171704.xml"/>
    <inductionLoop id="7002_6_3_detector" lane="7002_6_3" pos="-8" friendlyPos="true" file="output_loop_detector_202504171704.xml"/>
    <inductionLoop id="7002_6_4_detector" lane="7002_6_4" pos="-8" friendlyPos="true" file="output_loop_detector_202504171704.xml"/>
    <inductionLoop id="306_6_0_detector" lane="306_6_0" pos="-8" friendlyPos="true" file="output_loop_detector_202504171704.xml"/>
    <inductionLoop id="306_6_1_detector" lane="306_6_1" pos="-8" friendlyPos="true" file="output_loop_detector_202504171704.xml"/>
    <inductionLoop id="306_6_2_detector" lane="306_6_2" pos="-8" friendlyPos="true" file="output_loop_detector_202504171704.xml"/>
    <inductionLoop id="306_6_3_detector" lane="306_6_3" pos="-8" friendlyPos="true" file="output_loop_detector_202504171704.xml"/>
    <inductionLoop id="306_6_4_detector" lane="306_6_4" pos="-8" friendlyPos="true" file="output_loop_detector_202504171704.xml"/>
    <inductionLoop id="339_6_0_detector" lane="339_6_0" pos="-8" friendlyPos="true" file="output_loop_detector_202504171704.xml"/>
    <inductionLoop id="339_6_1_detector" lane="339_6_1" pos="-8" friendlyPos="true" file="output_loop_detector_202504171704.xml"/>
    <inductionLoop id="339_6_2_detector" lane="339_6_2" pos="-8" friendlyPos="true" file="output_loop_detector_202504171704.xml"/>
    <inductionLoop id="339_6_3_detector" lane="339_6_3" pos="-8" friendlyPos="true" file="output_loop_detector_202504171704.xml"/>
    <inductionLoop id="10_7_0_detector" lane="10_7_0" pos="-8" friendlyPos="true" file="output_loop_detector_202504171704.xml"/>
    <inductionLoop id="10_7_1_detector" lane="10_7_1" pos="-8" friendlyPos="true" file="output_loop_detector_202504171704.xml"/>
    <inductionLoop id="10_7_2_detector" lane="10_7_2" pos="-8" friendlyPos="true" file="output_loop_detector_202504171704.xml"/>
    <inductionLoop id="10_7_3_detector" lane="10_7_3" pos="-8" friendlyPos="true" file="output_loop_detector_202504171704.xml"/>
    <inductionLoop id="225_7_0_detector" lane="225_7_0" pos="-8" friendlyPos="true" file="output_loop_detector_202504171704.xml"/>
    <inductionLoop id="225_7_1_detector" lane="225_7_1" pos="-8" friendlyPos="true" file="output_loop_detector_202504171704.xml"/>
    <inductionLoop id="225_7_2_detector" lane="225_7_2" pos="-8" friendlyPos="true" file="output_loop_detector_202504171704.xml"/>
    <inductionLoop id="225_7_3_detector" lane="225_7_3" pos="-8" friendlyPos="true" file="output_loop_detector_202504171704.xml"/>
    <inductionLoop id="484_7_0_detector" lane="484_7_0" pos="-8" friendlyPos="true" file="output_loop_detector_202504171704.xml"/>
    <inductionLoop id="484_7_1_detector" lane="484_7_1" pos="-8" friendlyPos="true" file="output_loop_detector_202504171704.xml"/>
    <inductionLoop id="484_7_2_detector" lane="484_7_2" pos="-8" friendlyPos="true" file="output_loop_detector_202504171704.xml"/>
    <inductionLoop id="326_7_0_detector" lane="326_7_0" pos="-8" friendlyPos="true" file="output_loop_detector_202504171704.xml"/>
    <inductionLoop id="326_7_1_detector" lane="326_7_1" pos="-8" friendlyPos="true" file="output_loop_detector_202504171704.xml"/>
    <inductionLoop id="326_7_2_detector" lane="326_7_2" pos="-8" friendlyPos="true" file="output_loop_detector_202504171704.xml"/>
    <inductionLoop id="329_8_0_detector" lane="329_8_0" pos="-8" friendlyPos="true" file="output_loop_detector_202504171704.xml"/>
    <inductionLoop id="329_8_1_detector" lane="329_8_1" pos="-8" friendlyPos="true" file="output_loop_detector_202504171704.xml"/>
    <inductionLoop id="329_8_2_detector" lane="329_8_2" pos="-8" friendlyPos="true" file="output_loop_detector_202504171704.xml"/>
    <inductionLoop id="329_8_3_detector" lane="329_8_3" pos="-8" friendlyPos="true" file="output_loop_detector_202504171704.xml"/>
    <inductionLoop id="329_8_4_detector" lane="329_8_4" pos="-8" friendlyPos="true" file="output_loop_detector_202504171704.xml"/>
    <inductionLoop id="314_8_0_detector" lane="314_8_0" pos="-8" friendlyPos="true" file="output_loop_detector_202504171704.xml"/>
    <inductionLoop id="314_8_1_detector" lane="314_8_1" pos="-8" friendlyPos="true" file="output_loop_detector_202504171704.xml"/>
    <inductionLoop id="314_8_2_detector" lane="314_8_2" pos="-8" friendlyPos="true" file="output_loop_detector_202504171704.xml"/>
    <inductionLoop id="314_8_3_detector" lane="314_8_3" pos="-8" friendlyPos="true" file="output_loop_detector_202504171704.xml"/>
    <inductionLoop id="314_8_4_detector" lane="314_8_4" pos="-8" friendlyPos="true" file="output_loop_detector_202504171704.xml"/>
    <inductionLoop id="507_8_0_detector" lane="507_8_0" pos="-8" friendlyPos="true" file="output_loop_detector_202504171704.xml"/>
    <inductionLoop id="507_8_1_detector" lane="507_8_1" pos="-8" friendlyPos="true" file="output_loop_detector_202504171704.xml"/>
    <inductionLoop id="507_8_2_detector" lane="507_8_2" pos="-8" friendlyPos="true" file="output_loop_detector_202504171704.xml"/>
    <inductionLoop id="507_8_3_detector" lane="507_8_3" pos="-8" friendlyPos="true" file="output_loop_detector_202504171704.xml"/>
    <inductionLoop id="507_8_4_detector" lane="507_8_4" pos="-8" friendlyPos="true" file="output_loop_detector_202504171704.xml"/>
    <inductionLoop id="320_8_0_detector" lane="320_8_0" pos="-8" friendlyPos="true" file="output_loop_detector_202504171704.xml"/>
    <inductionLoop id="320_8_1_detector" lane="320_8_1" pos="-8" friendlyPos="true" file="output_loop_detector_202504171704.xml"/>
    <inductionLoop id="320_8_2_detector" lane="320_8_2" pos="-8" friendlyPos="true" file="output_loop_detector_202504171704.xml"/>
    <inductionLoop id="320_8_3_detector" lane="320_8_3" pos="-8" friendlyPos="true" file="output_loop_detector_202504171704.xml"/>
    <inductionLoop id="349_9_0_detector" lane="349_9_0" pos="-8" friendlyPos="true" file="output_loop_detector_202504171704.xml"/>
    <inductionLoop id="349_9_1_detector" lane="349_9_1" pos="-8" friendlyPos="true" file="output_loop_detector_202504171704.xml"/>
    <inductionLoop id="349_9_2_detector" lane="349_9_2" pos="-8" friendlyPos="true" file="output_loop_detector_202504171704.xml"/>
    <inductionLoop id="350_9_0_detector" lane="350_9_0" pos="-8" friendlyPos="true" file="output_loop_detector_202504171704.xml"/>
    <inductionLoop id="350_9_1_detector" lane="350_9_1" pos="-8" friendlyPos="true" file="output_loop_detector_202504171704.xml"/>
    <inductionLoop id="350_9_2_detector" lane="350_9_2" pos="-8" friendlyPos="true" file="output_loop_detector_202504171704.xml"/>
    <inductionLoop id="319_9_0_detector" lane="319_9_0" pos="-8" friendlyPos="true" file="output_loop_detector_202504171704.xml"/>
    <inductionLoop id="319_9_1_detector" lane="319_9_1" pos="-8" friendlyPos="true" file="output_loop_detector_202504171704.xml"/>
    <inductionLoop id="319_9_2_detector" lane="319_9_2" pos="-8" friendlyPos="true" file="output_loop_detector_202504171704.xml"/>
    <inductionLoop id="319_9_3_detector" lane="319_9_3" pos="-8" friendlyPos="true" file="output_loop_detector_202504171704.xml"/>
    <inductionLoop id="10_9_0_detector" lane="10_9_0" pos="-8" friendlyPos="true" file="output_loop_detector_202504171704.xml"/>
    <inductionLoop id="10_9_1_detector" lane="10_9_1" pos="-8" friendlyPos="true" file="output_loop_detector_202504171704.xml"/>
    <inductionLoop id="10_9_2_detector" lane="10_9_2" pos="-8" friendlyPos="true" file="output_loop_detector_202504171704.xml"/>
    <inductionLoop id="17_10_0_detector" lane="17_10_0" pos="-8" friendlyPos="true" file="output_loop_detector_202504171704.xml"/>
    <inductionLoop id="17_10_1_detector" lane="17_10_1" pos="-8" friendlyPos="true" file="output_loop_detector_202504171704.xml"/>
    <inductionLoop id="17_10_2_detector" lane="17_10_2" pos="-8" friendlyPos="true" file="output_loop_detector_202504171704.xml"/>
    <inductionLoop id="17_10_3_detector" lane="17_10_3" pos="-8" friendlyPos="true" file="output_loop_detector_202504171704.xml"/>
    <inductionLoop id="17_10_4_detector" lane="17_10_4" pos="-8" friendlyPos="true" file="output_loop_detector_202504171704.xml"/>
    <inductionLoop id="7_10_0_detector" lane="7_10_0" pos="-8" friendlyPos="true" file="output_loop_detector_202504171704.xml"/>
    <inductionLoop id="7_10_1_detector" lane="7_10_1" pos="-8" friendlyPos="true" file="output_loop_detector_202504171704.xml"/>
    <inductionLoop id="7_10_2_detector" lane="7_10_2" pos="-8" friendlyPos="true" file="output_loop_detector_202504171704.xml"/>
    <inductionLoop id="7_10_3_detector" lane="7_10_3" pos="-8" friendlyPos="true" file="output_loop_detector_202504171704.xml"/>
    <inductionLoop id="7_10_4_detector" lane="7_10_4" pos="-8" friendlyPos="true" file="output_loop_detector_202504171704.xml"/>
    <inductionLoop id="9_10_0_detector" lane="9_10_0" pos="-8" friendlyPos="true" file="output_loop_detector_202504171704.xml"/>
    <inductionLoop id="9_10_1_detector" lane="9_10_1" pos="-8" friendlyPos="true" file="output_loop_detector_202504171704.xml"/>
    <inductionLoop id="9_10_2_detector" lane="9_10_2" pos="-8" friendlyPos="true" file="output_loop_detector_202504171704.xml"/>
    <inductionLoop id="9_10_3_detector" lane="9_10_3" pos="-8" friendlyPos="true" file="output_loop_detector_202504171704.xml"/>
    <inductionLoop id="9_10_4_detector" lane="9_10_4" pos="-8" friendlyPos="true" file="output_loop_detector_202504171704.xml"/>
    <inductionLoop id="11_10_0_detector" lane="11_10_0" pos="-8" friendlyPos="true" file="output_loop_detector_202504171704.xml"/>
    <inductionLoop id="11_10_1_detector" lane="11_10_1" pos="-8" friendlyPos="true" file="output_loop_detector_202504171704.xml"/>
    <inductionLoop id="11_10_2_detector" lane="11_10_2" pos="-8" friendlyPos="true" file="output_loop_detector_202504171704.xml"/>
    <inductionLoop id="11_10_3_detector" lane="11_10_3" pos="-8" friendlyPos="true" file="output_loop_detector_202504171704.xml"/>
    <inductionLoop id="11_10_4_detector" lane="11_10_4" pos="-8" friendlyPos="true" file="output_loop_detector_202504171704.xml"/>
    <inductionLoop id="173_11_0_detector" lane="173_11_0" pos="-8" friendlyPos="true" file="output_loop_detector_202504171704.xml"/>
    <inductionLoop id="173_11_1_detector" lane="173_11_1" pos="-8" friendlyPos="true" file="output_loop_detector_202504171704.xml"/>
    <inductionLoop id="327_11_0_detector" lane="327_11_0" pos="-8" friendlyPos="true" file="output_loop_detector_202504171704.xml"/>
    <inductionLoop id="327_11_1_detector" lane="327_11_1" pos="-8" friendlyPos="true" file="output_loop_detector_202504171704.xml"/>
    <inductionLoop id="10_11_0_detector" lane="10_11_0" pos="-8" friendlyPos="true" file="output_loop_detector_202504171704.xml"/>
    <inductionLoop id="10_11_1_detector" lane="10_11_1" pos="-8" friendlyPos="true" file="output_loop_detector_202504171704.xml"/>
    <inductionLoop id="10_11_2_detector" lane="10_11_2" pos="-8" friendlyPos="true" file="output_loop_detector_202504171704.xml"/>
    <inductionLoop id="12_11_0_detector" lane="12_11_0" pos="-8" friendlyPos="true" file="output_loop_detector_202504171704.xml"/>
    <inductionLoop id="12_11_1_detector" lane="12_11_1" pos="-8" friendlyPos="true" file="output_loop_detector_202504171704.xml"/>
    <inductionLoop id="12_11_2_detector" lane="12_11_2" pos="-8" friendlyPos="true" file="output_loop_detector_202504171704.xml"/>
    <inductionLoop id="19_12_0_detector" lane="19_12_0" pos="-8" friendlyPos="true" file="output_loop_detector_202504171704.xml"/>
    <inductionLoop id="19_12_1_detector" lane="19_12_1" pos="-8" friendlyPos="true" file="output_loop_detector_202504171704.xml"/>
    <inductionLoop id="19_12_2_detector" lane="19_12_2" pos="-8" friendlyPos="true" file="output_loop_detector_202504171704.xml"/>
    <inductionLoop id="19_12_3_detector" lane="19_12_3" pos="-8" friendlyPos="true" file="output_loop_detector_202504171704.xml"/>
    <inductionLoop id="328_12_0_detector" lane="328_12_0" pos="-8" friendlyPos="true" file="output_loop_detector_202504171704.xml"/>
    <inductionLoop id="328_12_1_detector" lane="328_12_1" pos="-8" friendlyPos="true" file="output_loop_detector_202504171704.xml"/>
    <inductionLoop id="328_12_2_detector" lane="328_12_2" pos="-8" friendlyPos="true" file="output_loop_detector_202504171704.xml"/>
    <inductionLoop id="11_12_0_detector" lane="11_12_0" pos="-8" friendlyPos="true" file="output_loop_detector_202504171704.xml"/>
    <inductionLoop id="11_12_1_detector" lane="11_12_1" pos="-8" friendlyPos="true" file="output_loop_detector_202504171704.xml"/>
    <inductionLoop id="11_12_2_detector" lane="11_12_2" pos="-8" friendlyPos="true" file="output_loop_detector_202504171704.xml"/>
    <inductionLoop id="24_13_0_detector" lane="24_13_0" pos="-8" friendlyPos="true" file="output_loop_detector_202504171704.xml"/>
    <inductionLoop id="24_13_1_detector" lane="24_13_1" pos="-8" friendlyPos="true" file="output_loop_detector_202504171704.xml"/>
    <inductionLoop id="24_13_2_detector" lane="24_13_2" pos="-8" friendlyPos="true" file="output_loop_detector_202504171704.xml"/>
    <inductionLoop id="24_13_3_detector" lane="24_13_3" pos="-8" friendlyPos="true" file="output_loop_detector_202504171704.xml"/>
    <inductionLoop id="24_13_4_detector" lane="24_13_4" pos="-8" friendlyPos="true" file="output_loop_detector_202504171704.xml"/>
    <inductionLoop id="24_13_5_detector" lane="24_13_5" pos="-8" friendlyPos="true" file="output_loop_detector_202504171704.xml"/>
    <inductionLoop id="7002_13_0_detector" lane="7002_13_0" pos="-8" friendlyPos="true" file="output_loop_detector_202504171704.xml"/>
    <inductionLoop id="7002_13_1_detector" lane="7002_13_1" pos="-8" friendlyPos="true" file="output_loop_detector_202504171704.xml"/>
    <inductionLoop id="7002_13_2_detector" lane="7002_13_2" pos="-8" friendlyPos="true" file="output_loop_detector_202504171704.xml"/>
    <inductionLoop id="7002_13_3_detector" lane="7002_13_3" pos="-8" friendlyPos="true" file="output_loop_detector_202504171704.xml"/>
    <inductionLoop id="7002_13_4_detector" lane="7002_13_4" pos="-8" friendlyPos="true" file="output_loop_detector_202504171704.xml"/>
    <inductionLoop id="7002_13_5_detector" lane="7002_13_5" pos="-8" friendlyPos="true" file="output_loop_detector_202504171704.xml"/>
    <inductionLoop id="7001_13_0_detector" lane="7001_13_0" pos="-8" friendlyPos="true" file="output_loop_detector_202504171704.xml"/>
    <inductionLoop id="7001_13_1_detector" lane="7001_13_1" pos="-8" friendlyPos="true" file="output_loop_detector_202504171704.xml"/>
    <inductionLoop id="7001_13_2_detector" lane="7001_13_2" pos="-8" friendlyPos="true" file="output_loop_detector_202504171704.xml"/>
    <inductionLoop id="7001_13_3_detector" lane="7001_13_3" pos="-8" friendlyPos="true" file="output_loop_detector_202504171704.xml"/>
    <inductionLoop id="7001_13_4_detector" lane="7001_13_4" pos="-8" friendlyPos="true" file="output_loop_detector_202504171704.xml"/>
    <inductionLoop id="486_13_0_detector" lane="486_13_0" pos="-8" friendlyPos="true" file="output_loop_detector_202504171704.xml"/>
    <inductionLoop id="486_13_1_detector" lane="486_13_1" pos="-8" friendlyPos="true" file="output_loop_detector_202504171704.xml"/>
    <inductionLoop id="486_13_2_detector" lane="486_13_2" pos="-8" friendlyPos="true" file="output_loop_detector_202504171704.xml"/>
    <inductionLoop id="486_13_3_detector" lane="486_13_3" pos="-8" friendlyPos="true" file="output_loop_detector_202504171704.xml"/>
    <inductionLoop id="486_13_4_detector" lane="486_13_4" pos="-8" friendlyPos="true" file="output_loop_detector_202504171704.xml"/>
    <inductionLoop id="5230_14_0_detector" lane="5230_14_0" pos="-8" friendlyPos="true" file="output_loop_detector_202504171704.xml"/>
    <inductionLoop id="5230_14_1_detector" lane="5230_14_1" pos="-8" friendlyPos="true" file="output_loop_detector_202504171704.xml"/>
    <inductionLoop id="7003_14_0_detector" lane="7003_14_0" pos="-8" friendlyPos="true" file="output_loop_detector_202504171704.xml"/>
    <inductionLoop id="7003_14_1_detector" lane="7003_14_1" pos="-8" friendlyPos="true" file="output_loop_detector_202504171704.xml"/>
    <inductionLoop id="7003_14_2_detector" lane="7003_14_2" pos="-8" friendlyPos="true" file="output_loop_detector_202504171704.xml"/>
    <inductionLoop id="486_14_0_detector" lane="486_14_0" pos="-8" friendlyPos="true" file="output_loop_detector_202504171704.xml"/>
    <inductionLoop id="486_14_1_detector" lane="486_14_1" pos="-8" friendlyPos="true" file="output_loop_detector_202504171704.xml"/>
    <inductionLoop id="486_14_2_detector" lane="486_14_2" pos="-8" friendlyPos="true" file="output_loop_detector_202504171704.xml"/>
    <inductionLoop id="486_14_3_detector" lane="486_14_3" pos="-8" friendlyPos="true" file="output_loop_detector_202504171704.xml"/>
    <inductionLoop id="247_14_0_detector" lane="247_14_0" pos="-8" friendlyPos="true" file="output_loop_detector_202504171704.xml"/>
    <inductionLoop id="247_14_1_detector" lane="247_14_1" pos="-8" friendlyPos="true" file="output_loop_detector_202504171704.xml"/>
    <inductionLoop id="247_14_2_detector" lane="247_14_2" pos="-8" friendlyPos="true" file="output_loop_detector_202504171704.xml"/>
    <inductionLoop id="509_16_0_detector" lane="509_16_0" pos="-8" friendlyPos="true" file="output_loop_detector_202504171704.xml"/>
    <inductionLoop id="509_16_1_detector" lane="509_16_1" pos="-8" friendlyPos="true" file="output_loop_detector_202504171704.xml"/>
    <inductionLoop id="509_16_2_detector" lane="509_16_2" pos="-8" friendlyPos="true" file="output_loop_detector_202504171704.xml"/>
    <inductionLoop id="509_16_3_detector" lane="509_16_3" pos="-8" friendlyPos="true" file="output_loop_detector_202504171704.xml"/>
    <inductionLoop id="143_16_0_detector" lane="143_16_0" pos="-8" friendlyPos="true" file="output_loop_detector_202504171704.xml"/>
    <inductionLoop id="143_16_1_detector" lane="143_16_1" pos="-8" friendlyPos="true" file="output_loop_detector_202504171704.xml"/>
    <inductionLoop id="143_16_2_detector" lane="143_16_2" pos="-8" friendlyPos="true" file="output_loop_detector_202504171704.xml"/>
    <inductionLoop id="7203_16_0_detector" lane="7203_16_0" pos="-8" friendlyPos="true" file="output_loop_detector_202504171704.xml"/>
    <inductionLoop id="5204_16_0_detector" lane="5204_16_0" pos="-8" friendlyPos="true" file="output_loop_detector_202504171704.xml"/>
    <inductionLoop id="5204_16_1_detector" lane="5204_16_1" pos="-8" friendlyPos="true" file="output_loop_detector_202504171704.xml"/>
    <inductionLoop id="5204_16_2_detector" lane="5204_16_2" pos="-8" friendlyPos="true" file="output_loop_detector_202504171704.xml"/>
    <inductionLoop id="224_17_0_detector" lane="224_17_0" pos="-8" friendlyPos="true" file="output_loop_detector_202504171704.xml"/>
    <inductionLoop id="224_17_1_detector" lane="224_17_1" pos="-8" friendlyPos="true" file="output_loop_detector_202504171704.xml"/>
    <inductionLoop id="224_17_2_detector" lane="224_17_2" pos="-8" friendlyPos="true" file="output_loop_detector_202504171704.xml"/>
    <inductionLoop id="224_17_3_detector" lane="224_17_3" pos="-8" friendlyPos="true" file="output_loop_detector_202504171704.xml"/>
    <inductionLoop id="224_17_4_detector" lane="224_17_4" pos="-8" friendlyPos="true" file="output_loop_detector_202504171704.xml"/>
    <inductionLoop id="224_17_5_detector" lane="224_17_5" pos="-8" friendlyPos="true" file="output_loop_detector_202504171704.xml"/>
    <inductionLoop id="10_17_0_detector" lane="10_17_0" pos="-8" friendlyPos="true" file="output_loop_detector_202504171704.xml"/>
    <inductionLoop id="10_17_1_detector" lane="10_17_1" pos="-8" friendlyPos="true" file="output_loop_detector_202504171704.xml"/>
    <inductionLoop id="10_17_2_detector" lane="10_17_2" pos="-8" friendlyPos="true" file="output_loop_detector_202504171704.xml"/>
    <inductionLoop id="10_17_3_detector" lane="10_17_3" pos="-8" friendlyPos="true" file="output_loop_detector_202504171704.xml"/>
    <inductionLoop id="10_17_4_detector" lane="10_17_4" pos="-8" friendlyPos="true" file="output_loop_detector_202504171704.xml"/>
    <inductionLoop id="10_17_5_detector" lane="10_17_5" pos="-8" friendlyPos="true" file="output_loop_detector_202504171704.xml"/>
    <inductionLoop id="317_17_0_detector" lane="317_17_0" pos="-8" friendlyPos="true" file="output_loop_detector_202504171704.xml"/>
    <inductionLoop id="317_17_1_detector" lane="317_17_1" pos="-8" friendlyPos="true" file="output_loop_detector_202504171704.xml"/>
    <inductionLoop id="317_17_2_detector" lane="317_17_2" pos="-8" friendlyPos="true" file="output_loop_detector_202504171704.xml"/>
    <inductionLoop id="317_17_3_detector" lane="317_17_3" pos="-8" friendlyPos="true" file="output_loop_detector_202504171704.xml"/>
    <inductionLoop id="496_17_0_detector" lane="496_17_0" pos="-8" friendlyPos="true" file="output_loop_detector_202504171704.xml"/>
    <inductionLoop id="496_17_1_detector" lane="496_17_1" pos="-8" friendlyPos="true" file="output_loop_detector_202504171704.xml"/>
    <inductionLoop id="496_17_2_detector" lane="496_17_2" pos="-8" friendlyPos="true" file="output_loop_detector_202504171704.xml"/>
    <inductionLoop id="33_18_0_detector" lane="33_18_0" pos="-8" friendlyPos="true" file="output_loop_detector_202504171704.xml"/>
    <inductionLoop id="33_18_1_detector" lane="33_18_1" pos="-8" friendlyPos="true" file="output_loop_detector_202504171704.xml"/>
    <inductionLoop id="33_18_2_detector" lane="33_18_2" pos="-8" friendlyPos="true" file="output_loop_detector_202504171704.xml"/>
    <inductionLoop id="33_18_3_detector" lane="33_18_3" pos="-8" friendlyPos="true" file="output_loop_detector_202504171704.xml"/>
    <inductionLoop id="224_18_0_detector" lane="224_18_0" pos="-8" friendlyPos="true" file="output_loop_detector_202504171704.xml"/>
    <inductionLoop id="224_18_1_detector" lane="224_18_1" pos="-8" friendlyPos="true" file="output_loop_detector_202504171704.xml"/>
    <inductionLoop id="224_18_2_detector" lane="224_18_2" pos="-8" friendlyPos="true" file="output_loop_detector_202504171704.xml"/>
    <inductionLoop id="224_18_3_detector" lane="224_18_3" pos="-8" friendlyPos="true" file="output_loop_detector_202504171704.xml"/>
    <inductionLoop id="224_18_4_detector" lane="224_18_4" pos="-8" friendlyPos="true" file="output_loop_detector_202504171704.xml"/>
    <inductionLoop id="21_18_0_detector" lane="21_18_0" pos="-8" friendlyPos="true" file="output_loop_detector_202504171704.xml"/>
    <inductionLoop id="21_18_1_detector" lane="21_18_1" pos="-8" friendlyPos="true" file="output_loop_detector_202504171704.xml"/>
    <inductionLoop id="21_18_2_detector" lane="21_18_2" pos="-8" friendlyPos="true" file="output_loop_detector_202504171704.xml"/>
    <inductionLoop id="21_18_3_detector" lane="21_18_3" pos="-8" friendlyPos="true" file="output_loop_detector_202504171704.xml"/>
    <inductionLoop id="21_18_4_detector" lane="21_18_4" pos="-8" friendlyPos="true" file="output_loop_detector_202504171704.xml"/>
    <inductionLoop id="5213_18_0_detector" lane="5213_18_0" pos="-8" friendlyPos="true" file="output_loop_detector_202504171704.xml"/>
    <inductionLoop id="5213_18_1_detector" lane="5213_18_1" pos="-8" friendlyPos="true" file="output_loop_detector_202504171704.xml"/>
    <inductionLoop id="5213_18_2_detector" lane="5213_18_2" pos="-8" friendlyPos="true" file="output_loop_detector_202504171704.xml"/>
    <inductionLoop id="5213_18_3_detector" lane="5213_18_3" pos="-8" friendlyPos="true" file="output_loop_detector_202504171704.xml"/>
    <inductionLoop id="5213_18_4_detector" lane="5213_18_4" pos="-8" friendlyPos="true" file="output_loop_detector_202504171704.xml"/>
    <inductionLoop id="42_19_0_detector" lane="42_19_0" pos="-8" friendlyPos="true" file="output_loop_detector_202504171704.xml"/>
    <inductionLoop id="42_19_1_detector" lane="42_19_1" pos="-8" friendlyPos="true" file="output_loop_detector_202504171704.xml"/>