<?xml version="1.0" ?>
<routes>
    <vType id="car" type="passenger"/>
    <flow id="338_262" from="338_2" to="2_262" number="300" type="car" end="7200"/>
    <flow id="262_338" from="262_2" to="2_338" number="300" type="car" end="7200"/>
    <flow id="117_262" from="117_2" to="2_262" number="50" type="car" end="7200"/>
    <flow id="117_338" from="117_2" to="2_338" number="50" type="car" end="7200"/>
    <flow id="375_80" from="375_4" to="4_80" number="564" type="car" end="7200"/>
    <flow id="80_610" from="80_4" to="4_610" number="683" type="car" end="7200"/>
    <flow id="80_375" from="80_4" to="4_375" number="1334" type="car" end="7200"/>
    <flow id="612_80" from="612_4" to="4_80" number="50" type="car" end="7200"/>
    <flow id="612_610" from="612_4" to="4_610" number="50" type="car" end="7200"/>
    <flow id="612_375" from="612_4" to="4_375" number="50" type="car" end="7200"/>
    <flow id="949_194" from="949_8" to="8_194" number="25" type="car" end="7200"/>
    <flow id="949_10" from="949_8" to="8_10" number="300" type="car" end="7200"/>
    <flow id="10_949" from="10_8" to="8_949" number="300" type="car" end="7200"/>
    <flow id="194_10" from="194_8" to="8_10" number="25" type="car" end="7200"/>
    <flow id="194_949" from="194_8" to="8_949" number="25" type="car" end="7200"/>
    <flow id="171_99" from="171_9" to="9_99" number="220" type="car" end="7200"/>
    <flow id="171_173" from="171_9" to="9_173" number="231" type="car" end="7200"/>
    <flow id="99_173" from="99_9" to="9_173" number="2065" type="car" end="7200"/>
    <flow id="99_171" from="99_9" to="9_171" number="611" type="car" end="7200"/>
    <flow id="21_99" from="21_9" to="9_99" number="50" type="car" end="7200"/>
    <flow id="21_173" from="21_9" to="9_173" number="50" type="car" end="7200"/>
    <flow id="21_171" from="21_9" to="9_171" number="50" type="car" end="7200"/>
    <flow id="8_126" from="8_10" to="10_126" number="25" type="car" end="7200"/>
    <flow id="8_127" from="8_10" to="10_127" number="300" type="car" end="7200"/>
    <flow id="127_236" from="127_10" to="10_236" number="25" type="car" end="7200"/>
    <flow id="127_8" from="127_10" to="10_8" number="300" type="car" end="7200"/>
    <flow id="126_127" from="126_10" to="10_127" number="25" type="car" end="7200"/>
    <flow id="126_236" from="126_10" to="10_236" number="300" type="car" end="7200"/>
    <flow id="236_8" from="236_10" to="10_8" number="25" type="car" end="7200"/>
    <flow id="236_126" from="236_10" to="10_126" number="300" type="car" end="7200"/>
    <flow id="14_42" from="14_11" to="11_42" number="25" type="car" end="7200"/>
    <flow id="14_212" from="14_11" to="11_212" number="300" type="car" end="7200"/>
    <flow id="212_29" from="212_11" to="11_29" number="25" type="car" end="7200"/>
    <flow id="212_14" from="212_11" to="11_14" number="300" type="car" end="7200"/>
    <flow id="212_42" from="212_11" to="11_42" number="25" type="car" end="7200"/>
    <flow id="42_212" from="42_11" to="11_212" number="25" type="car" end="7200"/>
    <flow id="42_29" from="42_11" to="11_29" number="300" type="car" end="7200"/>
    <flow id="29_14" from="29_11" to="11_14" number="25" type="car" end="7200"/>
    <flow id="29_42" from="29_11" to="11_42" number="300" type="car" end="7200"/>
    <flow id="29_212" from="29_11" to="11_212" number="25" type="car" end="7200"/>
    <flow id="447_16" from="447_14" to="14_16" number="25" type="car" end="7200"/>
    <flow id="447_11" from="447_14" to="14_11" number="300" type="car" end="7200"/>
    <flow id="11_175" from="11_14" to="14_175" number="25" type="car" end="7200"/>
    <flow id="11_447" from="11_14" to="14_447" number="300" type="car" end="7200"/>
    <flow id="16_11" from="16_14" to="14_11" number="25" type="car" end="7200"/>
    <flow id="16_175" from="16_14" to="14_175" number="100" type="car" end="7200"/>
    <flow id="175_447" from="175_14" to="14_447" number="25" type="car" end="7200"/>
    <flow id="175_16" from="175_14" to="14_16" number="100" type="car" end="7200"/>
    <flow id="175_11" from="175_14" to="14_11" number="25" type="car" end="7200"/>
    <flow id="24_304" from="24_19" to="19_304" number="25" type="car" end="7200"/>
    <flow id="24_373" from="24_19" to="19_373" number="300" type="car" end="7200"/>
    <flow id="373_24" from="373_19" to="19_24" number="300" type="car" end="7200"/>
    <flow id="174_24" from="174_19" to="19_24" number="50" type="car" end="7200"/>
    <flow id="174_304" from="174_19" to="19_304" number="50" type="car" end="7200"/>
    <flow id="174_373" from="174_19" to="19_373" number="50" type="car" end="7200"/>
    <flow id="357_19" from="357_24" to="24_19" number="300" type="car" end="7200"/>
    <flow id="357_303" from="357_24" to="24_303" number="25" type="car" end="7200"/>
    <flow id="19_303" from="19_24" to="24_303" number="25" type="car" end="7200"/>
    <flow id="19_357" from="19_24" to="24_357" number="300" type="car" end="7200"/>
    <flow id="305_19" from="305_24" to="24_19" number="50" type="car" end="7200"/>
    <flow id="305_303" from="305_24" to="24_303" number="50" type="car" end="7200"/>
    <flow id="305_357" from="305_24" to="24_357" number="50" type="car" end="7200"/>
    <flow id="169_11" from="169_29" to="29_11" number="25" type="car" end="7200"/>
    <flow id="169_299" from="169_29" to="29_299" number="100" type="car" end="7200"/>
    <flow id="169_30" from="169_29" to="29_30" number="25" type="car" end="7200"/>
    <flow id="299_30" from="299_29" to="29_30" number="25" type="car" end="7200"/>
    <flow id="299_169" from="299_29" to="29_169" number="100" type="car" end="7200"/>
    <flow id="11_299" from="11_29" to="29_299" number="25" type="car" end="7200"/>
    <flow id="11_30" from="11_29" to="29_30" number="300" type="car" end="7200"/>
    <flow id="30_169" from="30_29" to="29_169" number="25" type="car" end="7200"/>
    <flow id="30_11" from="30_29" to="29_11" number="300" type="car" end="7200"/>
    <flow id="31_29" from="31_30" to="30_29" number="25" type="car" end="7200"/>
    <flow id="31_27" from="31_30" to="30_27" number="300" type="car" end="7200"/>
    <flow id="27_51" from="27_30" to="30_51" number="25" type="car" end="7200"/>
    <flow id="27_31" from="27_30" to="30_31" number="300" type="car" end="7200"/>
    <flow id="29_27" from="29_30" to="30_27" number="25" type="car" end="7200"/>
    <flow id="29_51" from="29_30" to="30_51" number="300" type="car" end="7200"/>
    <flow id="29_31" from="29_30" to="30_31" number="25" type="car" end="7200"/>
    <flow id="51_31" from="51_30" to="30_31" number="25" type="car" end="7200"/>
    <flow id="51_29" from="51_30" to="30_29" number="300" type="car" end="7200"/>
    <flow id="33_30" from="33_31" to="31_30" number="300" type="car" end="7200"/>
    <flow id="30_320" from="30_31" to="31_320" number="25" type="car" end="7200"/>
    <flow id="30_33" from="30_31" to="31_33" number="300" type="car" end="7200"/>
    <flow id="320_33" from="320_31" to="31_33" number="25" type="car" end="7200"/>
    <flow id="320_30" from="320_31" to="31_30" number="25" type="car" end="7200"/>
    <flow id="32_179" from="32_33" to="33_179" number="25" type="car" end="7200"/>
    <flow id="32_31" from="32_33" to="33_31" number="300" type="car" end="7200"/>
    <flow id="31_34" from="31_33" to="33_34" number="25" type="car" end="7200"/>
    <flow id="31_32" from="31_33" to="33_32" number="300" type="car" end="7200"/>
    <flow id="179_31" from="179_33" to="33_31" number="25" type="car" end="7200"/>
    <flow id="179_34" from="179_33" to="33_34" number="100" type="car" end="7200"/>
    <flow id="34_32" from="34_33" to="33_32" number="25" type="car" end="7200"/>
    <flow id="34_179" from="34_33" to="33_179" number="100" type="car" end="7200"/>
    <flow id="465_39" from="465_35" to="35_39" number="25" type="car" end="7200"/>
    <flow id="465_116" from="465_35" to="35_116" number="300" type="car" end="7200"/>
    <flow id="116_36" from="116_35" to="35_36" number="25" type="car" end="7200"/>
    <flow id="116_465" from="116_35" to="35_465" number="300" type="car" end="7200"/>
    <flow id="116_39" from="116_35" to="35_39" number="25" type="car" end="7200"/>
    <flow id="39_36" from="39_35" to="35_36" number="300" type="car" end="7200"/>
    <flow id="36_39" from="36_35" to="35_39" number="300" type="car" end="7200"/>
    <flow id="36_116" from="36_35" to="35_116" number="25" type="car" end="7200"/>
    <flow id="204_624" from="204_37" to="37_624" number="25" type="car" end="7200"/>
    <flow id="204_456" from="204_37" to="37_456" number="300" type="car" end="7200"/>
    <flow id="456_204" from="456_37" to="37_204" number="300" type="car" end="7200"/>
    <flow id="456_624" from="456_37" to="37_624" number="25" type="car" end="7200"/>
    <flow id="623_204" from="623_37" to="37_204" number="50" type="car" end="7200"/>
    <flow id="623_624" from="623_37" to="37_624" number="50" type="car" end="7200"/>
    <flow id="623_456" from="623_37" to="37_456" number="50" type="car" end="7200"/>
    <flow id="41_51" from="41_39" to="39_51" number="25" type="car" end="7200"/>
    <flow id="41_40" from="41_39" to="39_40" number="100" type="car" end="7200"/>
    <flow id="40_35" from="40_39" to="39_35" number="25" type="car" end="7200"/>
    <flow id="40_41" from="40_39" to="39_41" number="100" type="car" end="7200"/>
    <flow id="51_40" from="51_39" to="39_40" number="25" type="car" end="7200"/>
    <flow id="51_35" from="51_39" to="39_35" number="300" type="car" end="7200"/>
    <flow id="35_41" from="35_39" to="39_41" number="25" type="car" end="7200"/>
    <flow id="35_51" from="35_39" to="39_51" number="300" type="car" end="7200"/>
    <flow id="43_236" from="43_42" to="42_236" number="25" type="car" end="7200"/>
    <flow id="43_11" from="43_42" to="42_11" number="25" type="car" end="7200"/>
    <flow id="236_11" from="236_42" to="42_11" number="300" type="car" end="7200"/>
    <flow id="236_43" from="236_42" to="42_43" number="25" type="car" end="7200"/>
    <flow id="11_43" from="11_42" to="42_43" number="25" type="car" end="7200"/>
    <flow id="11_236" from="11_42" to="42_236" number="300" type="car" end="7200"/>
    <flow id="333_949" from="333_47" to="47_949" number="25" type="car" end="7200"/>
    <flow id="333_334" from="333_47" to="47_334" number="100" type="car" end="7200"/>
    <flow id="333_447" from="333_47" to="47_447" number="25" type="car" end="7200"/>
    <flow id="334_447" from="334_47" to="47_447" number="25" type="car" end="7200"/>
    <flow id="334_333" from="334_47" to="47_333" number="100" type="car" end="7200"/>
    <flow id="949_447" from="949_47" to="47_447" number="300" type="car" end="7200"/>
    <flow id="447_949" from="447_47" to="47_949" number="300" type="car" end="7200"/>
    <flow id="62_68" from="62_49" to="49_68" number="25" type="car" end="7200"/>
    <flow id="62_20" from="62_49" to="49_20" number="300" type="car" end="7200"/>
    <flow id="20_62" from="20_49" to="49_62" number="300" type="car" end="7200"/>
    <flow id="68_20" from="68_49" to="49_20" number="25" type="car" end="7200"/>
    <flow id="68_62" from="68_49" to="49_62" number="25" type="car" end="7200"/>
    <flow id="59_53" from="59_51" to="51_53" number="100" type="car" end="7200"/>
    <flow id="53_59" from="53_51" to="51_59" number="100" type="car" end="7200"/>
    <flow id="30_53" from="30_51" to="51_53" number="25" type="car" end="7200"/>
    <flow id="30_39" from="30_51" to="51_39" number="300" type="car" end="7200"/>
    <flow id="39_30" from="39_51" to="51_30" number="300" type="car" end="7200"/>
    <flow id="189_620" from="189_55" to="55_620" number="25" type="car" end="7200"/>
    <flow id="189_447" from="189_55" to="55_447" number="300" type="car" end="7200"/>
    <flow id="447_189" from="447_55" to="55_189" number="300" type="car" end="7200"/>
    <flow id="447_620" from="447_55" to="55_620" number="25" type="car" end="7200"/>
    <flow id="619_189" from="619_55" to="55_189" number="50" type="car" end="7200"/>
    <flow id="619_620" from="619_55" to="55_620" number="50" type="car" end="7200"/>
    <flow id="619_447" from="619_55" to="55_447" number="50" type="car" end="7200"/>
    <flow id="61_386" from="61_56" to="56_386" number="25" type="car" end="7200"/>
    <flow id="61_203" from="61_56" to="56_203" number="300" type="car" end="7200"/>
    <flow id="203_57" from="203_56" to="56_57" number="25" type="car" end="7200"/>
    <flow id="203_61" from="203_56" to="56_61" number="300" type="car" end="7200"/>
    <flow id="386_203" from="386_56" to="56_203" number="25" type="car" end="7200"/>
    <flow id="386_57" from="386_56" to="56_57" number="100" type="car" end="7200"/>
    <flow id="57_61" from="57_56" to="56_61" number="25" type="car" end="7200"/>
    <flow id="57_386" from="57_56" to="56_386" number="100" type="car" end="7200"/>
    <flow id="356_686" from="356_58" to="58_686" number="25" type="car" end="7200"/>
    <flow id="356_445" from="356_58" to="58_445" number="300" type="car" end="7200"/>
    <flow id="445_6" from="445_58" to="58_6" number="25" type="car" end="7200"/>
    <flow id="445_356" from="445_58" to="58_356" number="300" type="car" end="7200"/>
    <flow id="445_686" from="445_58" to="58_686" number="25" type="car" end="7200"/>
    <flow id="686_445" from="686_58" to="58_445" number="25" type="car" end="7200"/>
    <flow id="686_6" from="686_58" to="58_6" number="300" type="car" end="7200"/>
    <flow id="6_356" from="6_58" to="58_356" number="25" type="car" end="7200"/>
    <flow id="6_686" from="6_58" to="58_686" number="300" type="car" end="7200"/>
    <flow id="112_6" from="112_61" to="61_6" number="25" type="car" end="7200"/>
    <flow id="112_56" from="112_61" to="61_56" number="300" type="car" end="7200"/>
    <flow id="56_63" from="56_61" to="61_63" number="25" type="car" end="7200"/>
    <flow id="56_112" from="56_61" to="61_112" number="300" type="car" end="7200"/>
    <flow id="6_56" from="6_61" to="61_56" number="25" type="car" end="7200"/>
    <flow id="6_63" from="6_61" to="61_63" number="300" type="car" end="7200"/>
    <flow id="63_112" from="63_61" to="61_112" number="25" type="car" end="7200"/>
    <flow id="63_6" from="63_61" to="61_6" number="300" type="car" end="7200"/>
    <flow id="345_235" from="345_62" to="62_235" number="25" type="car" end="7200"/>
    <flow id="345_49" from="345_62" to="62_49" number="300" type="car" end="7200"/>
    <flow id="49_87" from="49_62" to="62_87" number="25" type="car" end="7200"/>
    <flow id="49_345" from="49_62" to="62_345" number="300" type="car" end="7200"/>
    <flow id="49_235" from="49_62" to="62_235" number="25" type="car" end="7200"/>
    <flow id="235_49" from="235_62" to="62_49" number="25" type="car" end="7200"/>
    <flow id="235_87" from="235_62" to="62_87" number="300" type="car" end="7200"/>
    <flow id="87_345" from="87_62" to="62_345" number="25" type="car" end="7200"/>
    <flow id="87_235" from="87_62" to="62_235" number="300" type="car" end="7200"/>
    <flow id="64_61" from="64_63" to="63_61" number="25" type="car" end="7200"/>
    <flow id="64_52" from="64_63" to="63_52" number="100" type="car" end="7200"/>
    <flow id="52_235" from="52_63" to="63_235" number="25" type="car" end="7200"/>
    <flow id="52_64" from="52_63" to="63_64" number="100" type="car" end="7200"/>
    <flow id="61_52" from="61_63" to="63_52" number="25" type="car" end="7200"/>
    <flow id="61_235" from="61_63" to="63_235" number="300" type="car" end="7200"/>
    <flow id="235_64" from="235_63" to="63_64" number="25" type="car" end="7200"/>
    <flow id="235_61" from="235_63" to="63_61" number="300" type="car" end="7200"/>
    <flow id="251_616" from="251_65" to="65_616" number="25" type="car" end="7200"/>
    <flow id="251_949" from="251_65" to="65_949" number="300" type="car" end="7200"/>
    <flow id="949_251" from="949_65" to="65_251" number="300" type="car" end="7200"/>
    <flow id="949_616" from="949_65" to="65_616" number="25" type="car" end="7200"/>
    <flow id="614_251" from="614_65" to="65_251" number="50" type="car" end="7200"/>
    <flow id="614_616" from="614_65" to="65_616" number="50" type="car" end="7200"/>
    <flow id="614_949" from="614_65" to="65_949" number="50" type="car" end="7200"/>
    <flow id="73_71" from="73_69" to="69_71" number="25" type="car" end="7200"/>
    <flow id="73_204" from="73_69" to="69_204" number="300" type="car" end="7200"/>
    <flow id="204_72" from="204_69" to="69_72" number="25" type="car" end="7200"/>
    <flow id="204_73" from="204_69" to="69_73" number="300" type="car" end="7200"/>
    <flow id="71_204" from="71_69" to="69_204" number="25" type="car" end="7200"/>
    <flow id="71_72" from="71_69" to="69_72" number="100" type="car" end="7200"/>
    <flow id="72_73" from="72_69" to="69_73" number="25" type="car" end="7200"/>
    <flow id="72_71" from="72_69" to="69_71" number="100" type="car" end="7200"/>
    <flow id="453_75" from="453_73" to="73_75" number="25" type="car" end="7200"/>
    <flow id="453_69" from="453_73" to="73_69" number="300" type="car" end="7200"/>
    <flow id="69_81" from="69_73" to="73_81" number="25" type="car" end="7200"/>
    <flow id="69_453" from="69_73" to="73_453" number="300" type="car" end="7200"/>
    <flow id="75_81" from="75_73" to="73_81" number="100" type="car" end="7200"/>
    <flow id="81_75" from="81_73" to="73_75" number="100" type="car" end="7200"/>
    <flow id="319_946" from="319_77" to="77_946" number="25" type="car" end="7200"/>
    <flow id="319_74" from="319_77" to="77_74" number="100" type="car" end="7200"/>
    <flow id="74_947" from="74_77" to="77_947" number="25" type="car" end="7200"/>
    <flow id="74_319" from="74_77" to="77_319" number="100" type="car" end="7200"/>
    <flow id="946_74" from="946_77" to="77_74" number="25" type="car" end="7200"/>
    <flow id="946_947" from="946_77" to="77_947" number="300" type="car" end="7200"/>
    <flow id="947_319" from="947_77" to="77_319" number="25" type="car" end="7200"/>
    <flow id="947_946" from="947_77" to="77_946" number="300" type="car" end="7200"/>
    <flow id="4_611" from="4_80" to="80_611" number="134" type="car" end="7200"/>
    <flow id="4_947" from="4_80" to="80_947" number="439" type="car" end="7200"/>
    <flow id="947_4" from="947_80" to="80_4" number="1455" type="car" end="7200"/>
    <flow id="609_4" from="609_80" to="80_4" number="583" type="car" end="7200"/>
    <flow id="609_611" from="609_80" to="80_611" number="50" type="car" end="7200"/>
    <flow id="609_947" from="609_80" to="80_947" number="168" type="car" end="7200"/>
    <flow id="84_83" from="84_82" to="82_83" number="100" type="car" end="7200"/>
    <flow id="83_84" from="83_82" to="82_84" number="100" type="car" end="7200"/>
    <flow id="462_83" from="462_82" to="82_83" number="25" type="car" end="7200"/>
    <flow id="462_396" from="462_82" to="82_396" number="300" type="car" end="7200"/>
    <flow id="396_84" from="396_82" to="82_84" number="25" type="car" end="7200"/>
    <flow id="396_462" from="396_82" to="82_462" number="300" type="car" end="7200"/>
    <flow id="86_62" from="86_87" to="87_62" number="25" type="car" end="7200"/>
    <flow id="86_85" from="86_87" to="87_85" number="100" type="car" end="7200"/>
    <flow id="85_92" from="85_87" to="87_92" number="25" type="car" end="7200"/>
    <flow id="85_86" from="85_87" to="87_86" number="100" type="car" end="7200"/>
    <flow id="62_85" from="62_87" to="87_85" number="25" type="car" end="7200"/>
    <flow id="62_92" from="62_87" to="87_92" number="300" type="car" end="7200"/>
    <flow id="92_86" from="92_87" to="87_86" number="25" type="car" end="7200"/>
    <flow id="92_62" from="92_87" to="87_62" number="300" type="car" end="7200"/>
    <flow id="95_530" from="95_89" to="89_530" number="25" type="car" end="7200"/>
    <flow id="95_405" from="95_89" to="89_405" number="100" type="car" end="7200"/>
    <flow id="405_562" from="405_89" to="89_562" number="25" type="car" end="7200"/>
    <flow id="405_95" from="405_89" to="89_95" number="100" type="car" end="7200"/>
    <flow id="530_405" from="530_89" to="89_405" number="12" type="car" end="7200"/>
    <flow id="530_562" from="530_89" to="89_562" number="1017" type="car" end="7200"/>
    <flow id="562_95" from="562_89" to="89_95" number="51" type="car" end="7200"/>
    <flow id="562_530" from="562_89" to="89_530" number="147" type="car" end="7200"/>
    <flow id="562_405" from="562_89" to="89_405" number="15" type="car" end="7200"/>
    <flow id="94_107" from="94_92" to="92_107" number="50" type="car" end="7200"/>
    <flow id="94_100" from="94_92" to="92_100" number="50" type="car" end="7200"/>
    <flow id="94_87" from="94_92" to="92_87" number="50" type="car" end="7200"/>
    <flow id="87_107" from="87_92" to="92_107" number="300" type="car" end="7200"/>
    <flow id="87_100" from="87_92" to="92_100" number="25" type="car" end="7200"/>
    <flow id="107_100" from="107_92" to="92_100" number="25" type="car" end="7200"/>
    <flow id="107_87" from="107_92" to="92_87" number="300" type="car" end="7200"/>
    <flow id="177_606" from="177_93" to="93_606" number="25" type="car" end="7200"/>
    <flow id="177_946" from="177_93" to="93_946" number="300" type="car" end="7200"/>
    <flow id="946_177" from="946_93" to="93_177" number="300" type="car" end="7200"/>
    <flow id="946_606" from="946_93" to="93_606" number="25" type="car" end="7200"/>
    <flow id="607_177" from="607_93" to="93_177" number="50" type="car" end="7200"/>
    <flow id="607_606" from="607_93" to="93_606" number="50" type="car" end="7200"/>
    <flow id="607_946" from="607_93" to="93_946" number="50" type="car" end="7200"/>
    <flow id="945_108" from="945_98" to="98_108" number="25" type="car" end="7200"/>
    <flow id="945_642" from="945_98" to="98_642" number="300" type="car" end="7200"/>
    <flow id="642_144" from="642_98" to="98_144" number="25" type="car" end="7200"/>
    <flow id="642_945" from="642_98" to="98_945" number="300" type="car" end="7200"/>
    <flow id="642_108" from="642_98" to="98_108" number="25" type="car" end="7200"/>
    <flow id="108_144" from="108_98" to="98_144" number="100" type="car" end="7200"/>
    <flow id="108_945" from="108_98" to="98_945" number="25" type="car" end="7200"/>
    <flow id="144_108" from="144_98" to="98_108" number="100" type="car" end="7200"/>
    <flow id="9_22" from="9_99" to="99_22" number="80" type="car" end="7200"/>
    <flow id="9_945" from="9_99" to="99_945" number="140" type="car" end="7200"/>
    <flow id="945_9" from="945_99" to="99_9" number="2451" type="car" end="7200"/>
    <flow id="945_22" from="945_99" to="99_22" number="230" type="car" end="7200"/>
    <flow id="23_9" from="23_99" to="99_9" number="227" type="car" end="7200"/>
    <flow id="23_22" from="23_99" to="99_22" number="50" type="car" end="7200"/>
    <flow id="23_945" from="23_99" to="99_945" number="154" type="car" end="7200"/>
    <flow id="111_92" from="111_107" to="107_92" number="50" type="car" end="7200"/>
    <flow id="111_110" from="111_107" to="107_110" number="50" type="car" end="7200"/>
    <flow id="92_110" from="92_107" to="107_110" number="25" type="car" end="7200"/>
    <flow id="92_346" from="92_107" to="107_346" number="300" type="car" end="7200"/>
    <flow id="346_92" from="346_107" to="107_92" number="300" type="car" end="7200"/>
    <flow id="114_142" from="114_113" to="113_142" number="25" type="car" end="7200"/>
    <flow id="114_330" from="114_113" to="113_330" number="300" type="car" end="7200"/>
    <flow id="330_114" from="330_113" to="113_114" number="300" type="car" end="7200"/>
    <flow id="143_113" from="143_114" to="114_113" number="50" type="car" end="7200"/>
    <flow id="143_120" from="143_114" to="114_120" number="50" type="car" end="7200"/>
    <flow id="120_113" from="120_114" to="114_113" number="300" type="car" end="7200"/>
    <flow id="113_120" from="113_114" to="114_120" number="300" type="car" end="7200"/>
    <flow id="131_234" from="131_118" to="118_234" number="25" type="car" end="7200"/>
    <flow id="131_130" from="131_118" to="118_130" number="100" type="car" end="7200"/>
    <flow id="130_124" from="130_118" to="118_124" number="25" type="car" end="7200"/>
    <flow id="130_131" from="130_118" to="118_131" number="100" type="car" end="7200"/>
    <flow id="234_130" from="234_118" to="118_130" number="68" type="car" end="7200"/>
    <flow id="234_124" from="234_118" to="118_124" number="1239" type="car" end="7200"/>
    <flow id="124_131" from="124_118" to="118_131" number="214" type="car" end="7200"/>
    <flow id="124_234" from="124_118" to="118_234" number="430" type="car" end="7200"/>
    <flow id="122_123" from="122_120" to="120_123" number="90" type="car" end="7200"/>
    <flow id="122_121" from="122_120" to="120_121" number="87" type="car" end="7200"/>
    <flow id="122_114" from="122_120" to="120_114" number="422" type="car" end="7200"/>
    <flow id="121_114" from="121_120" to="120_114" number="30" type="car" end="7200"/>
    <flow id="121_122" from="121_120" to="120_122" number="553" type="car" end="7200"/>
    <flow id="121_123" from="121_120" to="120_123" number="173" type="car" end="7200"/>
    <flow id="123_121" from="123_120" to="120_121" number="12" type="car" end="7200"/>
    <flow id="123_114" from="123_120" to="120_114" number="289" type="car" end="7200"/>
    <flow id="123_122" from="123_120" to="120_122" number="164" type="car" end="7200"/>
    <flow id="114_122" from="114_120" to="120_122" number="1040" type="car" end="7200"/>
    <flow id="114_123" from="114_120" to="120_123" number="105" type="car" end="7200"/>
    <flow id="120_314" from="120_121" to="121_314" number="100" type="car" end="7200"/>
    <flow id="120_182" from="120_121" to="121_182" number="500" type="car" end="7200"/>
    <flow id="182_120" from="182_121" to="121_120" number="300" type="car" end="7200"/>
    <flow id="182_314" from="182_121" to="121_314" number="50" type="car" end="7200"/>
    <flow id="314_182" from="314_121" to="121_182" number="100" type="car" end="7200"/>
    <flow id="314_120" from="314_121" to="121_120" number="50" type="car" end="7200"/>
    <flow id="166_3" from="166_122" to="122_3" number="58" type="car" end="7200"/>
    <flow id="166_120" from="166_122" to="122_120" number="490" type="car" end="7200"/>
    <flow id="120_166" from="120_122" to="122_166" number="1406" type="car" end="7200"/>
    <flow id="1_166" from="1_122" to="122_166" number="487" type="car" end="7200"/>
    <flow id="1_3" from="1_122" to="122_3" number="163" type="car" end="7200"/>
    <flow id="1_120" from="1_122" to="122_120" number="120" type="car" end="7200"/>
    <flow id="667_118" from="667_124" to="124_118" number="25" type="car" end="7200"/>
    <flow id="667_129" from="667_124" to="124_129" number="300" type="car" end="7200"/>
    <flow id="129_126" from="129_124" to="124_126" number="25" type="car" end="7200"/>
    <flow id="129_667" from="129_124" to="124_667" number="300" type="car" end="7200"/>
    <flow id="118_129" from="118_124" to="124_129" number="25" type="car" end="7200"/>
    <flow id="118_126" from="118_124" to="124_126" number="300" type="car" end="7200"/>
    <flow id="118_667" from="118_124" to="124_667" number="25" type="car" end="7200"/>
    <flow id="126_667" from="126_124" to="124_667" number="25" type="car" end="7200"/>
    <flow id="126_118" from="126_124" to="124_118" number="300" type="car" end="7200"/>
    <flow id="126_129" from="126_124" to="124_129" number="25" type="car" end="7200"/>
    <flow id="670_124" from="670_126" to="126_124" number="25" type="car" end="7200"/>
    <flow id="670_187" from="670_126" to="126_187" number="100" type="car" end="7200"/>
    <flow id="187_10" from="187_126" to="126_10" number="25" type="car" end="7200"/>
    <flow id="187_670" from="187_126" to="126_670" number="100" type="car" end="7200"/>
    <flow id="187_124" from="187_126" to="126_124" number="25" type="car" end="7200"/>
    <flow id="124_187" from="124_126" to="126_187" number="25" type="car" end="7200"/>
    <flow id="124_10" from="124_126" to="126_10" number="300" type="car" end="7200"/>
    <flow id="10_670" from="10_126" to="126_670" number="25" type="car" end="7200"/>
    <flow id="10_124" from="10_126" to="126_124" number="300" type="car" end="7200"/>
    <flow id="10_187" from="10_126" to="126_187" number="25" type="car" end="7200"/>
    <flow id="635_300" from="635_135" to="135_300" number="25" type="car" end="7200"/>
    <flow id="635_195" from="635_135" to="135_195" number="300" type="car" end="7200"/>
    <flow id="635_301" from="635_135" to="135_301" number="25" type="car" end="7200"/>
    <flow id="195_301" from="195_135" to="135_301" number="25" type="car" end="7200"/>
    <flow id="195_635" from="195_135" to="135_635" number="300" type="car" end="7200"/>
    <flow id="300_301" from="300_135" to="135_301" number="100" type="car" end="7200"/>
    <flow id="301_300" from="301_135" to="135_300" number="100" type="car" end="7200"/>
    <flow id="137_551" from="137_136" to="136_551" number="50" type="car" end="7200"/>
    <flow id="137_139" from="137_136" to="136_139" number="50" type="car" end="7200"/>
    <flow id="137_151" from="137_136" to="136_151" number="50" type="car" end="7200"/>
    <flow id="151_551" from="151_136" to="136_551" number="300" type="car" end="7200"/>
    <flow id="151_139" from="151_136" to="136_139" number="25" type="car" end="7200"/>
    <flow id="551_139" from="551_136" to="136_139" number="25" type="car" end="7200"/>
    <flow id="551_151" from="551_136" to="136_151" number="300" type="car" end="7200"/>
    <flow id="148_150" from="148_146" to="146_150" number="78" type="car" end="7200"/>
    <flow id="148_273" from="148_146" to="146_273" number="390" type="car" end="7200"/>
    <flow id="150_147" from="150_146" to="146_147" number="282" type="car" end="7200"/>