<?xml version="1.0" ?>
<edges>
    <edge id="122_1" from="122" to="1" speed="20.1168"/>
    <edge id="338_2" from="338" to="2" numLanes="4" speed="17.8816">
        <lane index="0" length="283.464" speed="17.8816"/>
        <lane index="1" length="283.464" speed="17.8816"/>
        <lane index="2" length="283.464" speed="17.8816"/>
        <lane index="3" length="283.464" speed="17.8816"/>
    </edge>
    <edge id="262_2" from="262" to="2" numLanes="3" speed="17.8816">
        <lane index="0" length="147.5232" speed="17.8816"/>
        <lane index="1" length="147.5232" speed="17.8816"/>
        <lane index="2" length="147.5232" speed="17.8816"/>
    </edge>
    <edge id="117_2" from="117" to="2" numLanes="3" speed="20.1168">
        <lane index="0" length="556.26" speed="20.1168"/>
        <lane index="1" length="556.26" speed="20.1168"/>
        <lane index="2" length="556.26" speed="20.1168"/>
    </edge>
    <edge id="122_3" from="122" to="3" numLanes="2" speed="20.1168"/>
    <edge id="375_4" from="375" to="4" numLanes="3" speed="17.8816">
        <lane index="0" length="391.0584" speed="17.8816"/>
        <lane index="1" length="391.0584" speed="17.8816"/>
        <lane index="2" length="391.0584" speed="17.8816"/>
    </edge>
    <edge id="80_4" from="80" to="4" numLanes="5" speed="17.8816">
        <lane index="0" length="142.3416" speed="17.8816"/>
        <lane index="1" length="142.3416" speed="17.8816"/>
        <lane index="2" length="142.3416" speed="17.8816"/>
        <lane index="3" length="142.3416" speed="17.8816"/>
        <lane index="4" length="142.3416" speed="17.8816"/>
    </edge>
    <edge id="612_4" from="612" to="4" numLanes="3" speed="20.1168">
        <lane index="0" length="76.2" speed="20.1168"/>
        <lane index="1" length="390.7536" speed="20.1168"/>
        <lane index="2" length="76.2" speed="20.1168"/>
    </edge>
    <edge id="610_4" from="610" to="4" speed="20.1168"/>
    <edge id="166_5" from="166" to="5" numLanes="2" speed="20.1168"/>
    <edge id="58_6" from="58" to="6" numLanes="2" speed="20.1168"/>
    <edge id="61_6" from="61" to="6" numLanes="3" speed="17.8816"/>
    <edge id="166_7" from="166" to="7" speed="13.4112"/>
    <edge id="949_8" from="949" to="8" numLanes="4" speed="17.8816">
        <lane index="0" length="771.4488" speed="17.8816"/>
        <lane index="1" length="771.4488" speed="17.8816"/>
        <lane index="2" length="771.4488" speed="17.8816"/>
        <lane index="3" length="45.72" speed="17.8816"/>
    </edge>
    <edge id="10_8" from="10" to="8" numLanes="2" speed="17.8816">
        <lane index="0" length="775.4112" speed="17.8816"/>
        <lane index="1" length="775.4112" speed="17.8816"/>
    </edge>
    <edge id="194_8" from="194" to="8" numLanes="2" speed="13.4112">
        <lane index="0" length="202.692" speed="13.4112"/>
        <lane index="1" length="202.692" speed="13.4112"/>
    </edge>
    <edge id="171_9" from="171" to="9" numLanes="3" speed="20.1168">
        <lane index="0" length="76.2" speed="20.1168"/>
        <lane index="1" length="353.26320000000004" speed="20.1168"/>
        <lane index="2" length="353.26320000000004" speed="20.1168"/>
    </edge>
    <edge id="99_9" from="99" to="9" numLanes="4" speed="20.1168">
        <lane index="0" length="150.876" speed="20.1168"/>
        <lane index="1" length="150.876" speed="20.1168"/>
        <lane index="2" length="150.876" speed="20.1168"/>
        <lane index="3" length="150.876" speed="20.1168"/>
    </edge>
    <edge id="21_9" from="21" to="9" numLanes="3" speed="20.1168">
        <lane index="0" length="76.2" speed="20.1168"/>
        <lane index="1" length="395.9352" speed="20.1168"/>
        <lane index="2" length="76.2" speed="20.1168"/>
    </edge>
    <edge id="173_9" from="173" to="9" speed="20.1168"/>
    <edge id="8_10" from="8" to="10" numLanes="4" speed="17.8816">
        <lane index="0" length="775.4112" speed="17.8816"/>
        <lane index="1" length="775.4112" speed="17.8816"/>
        <lane index="2" length="775.4112" speed="17.8816"/>
        <lane index="3" length="45.72" speed="17.8816"/>
    </edge>
    <edge id="127_10" from="127" to="10" numLanes="3" speed="17.8816">
        <lane index="0" length="183.4896" speed="17.8816"/>
        <lane index="1" length="183.4896" speed="17.8816"/>
        <lane index="2" length="45.72" speed="17.8816"/>
    </edge>
    <edge id="126_10" from="126" to="10" numLanes="4" speed="17.8816">
        <lane index="0" length="771.144" speed="17.8816"/>
        <lane index="1" length="771.144" speed="17.8816"/>
        <lane index="2" length="771.144" speed="17.8816"/>
        <lane index="3" length="76.2" speed="17.8816"/>
    </edge>
    <edge id="236_10" from="236" to="10" numLanes="4" speed="17.8816">
        <lane index="0" length="114.90960000000001" speed="17.8816"/>
        <lane index="1" length="114.90960000000001" speed="17.8816"/>
        <lane index="2" length="114.90960000000001" speed="17.8816"/>
        <lane index="3" length="45.72" speed="17.8816"/>
    </edge>
    <edge id="14_11" from="14" to="11" numLanes="4" speed="17.8816">
        <lane index="0" length="807.1104" speed="17.8816"/>
        <lane index="1" length="807.1104" speed="17.8816"/>
        <lane index="2" length="807.1104" speed="17.8816"/>
        <lane index="3" length="45.72" speed="17.8816"/>
    </edge>
    <edge id="212_11" from="212" to="11" numLanes="4" speed="17.8816">
        <lane index="0" length="45.72" speed="17.8816"/>
        <lane index="1" length="819.912" speed="17.8816"/>
        <lane index="2" length="819.912" speed="17.8816"/>
        <lane index="3" length="45.72" speed="17.8816"/>
    </edge>
    <edge id="42_11" from="42" to="11" numLanes="3" speed="17.8816">
        <lane index="0" length="905.5608000000001" speed="17.8816"/>
        <lane index="1" length="905.5608000000001" speed="17.8816"/>
        <lane index="2" length="60.96" speed="17.8816"/>
    </edge>
    <edge id="29_11" from="29" to="11" numLanes="5" speed="17.8816">
        <lane index="0" length="70.104" speed="17.8816"/>
        <lane index="1" length="804.672" speed="17.8816"/>
        <lane index="2" length="804.672" speed="17.8816"/>
        <lane index="3" length="804.672" speed="17.8816"/>
        <lane index="4" length="45.72" speed="17.8816"/>
    </edge>
    <edge id="149_12" from="149" to="12" speed="20.1168"/>
    <edge id="170_13" from="170" to="13" numLanes="2" speed="20.1168"/>
    <edge id="447_14" from="447" to="14" numLanes="4" speed="17.8816">
        <lane index="0" length="734.568" speed="17.8816"/>
        <lane index="1" length="734.568" speed="17.8816"/>
        <lane index="2" length="734.568" speed="17.8816"/>
        <lane index="3" length="30.48" speed="17.8816"/>
    </edge>
    <edge id="11_14" from="11" to="14" numLanes="3" speed="17.8816">
        <lane index="0" length="807.1104" speed="17.8816"/>
        <lane index="1" length="807.1104" speed="17.8816"/>
        <lane index="2" length="30.48" speed="17.8816"/>
    </edge>
    <edge id="16_14" from="16" to="14" numLanes="2" speed="13.4112">
        <lane index="0" length="382.8288" speed="13.4112"/>
        <lane index="1" length="30.48" speed="13.4112"/>
    </edge>
    <edge id="175_14" from="175" to="14" numLanes="3" speed="13.4112">
        <lane index="0" length="30.48" speed="13.4112"/>
        <lane index="1" length="161.2392" speed="13.4112"/>
        <lane index="2" length="30.48" speed="13.4112"/>
    </edge>
    <edge id="149_15" from="149" to="15" numLanes="2" speed="20.1168"/>
    <edge id="14_16" from="14" to="16" numLanes="1" speed="13.4112"/>
    <edge id="458_17" from="458" to="17" numLanes="1" speed="13.4112"/>
    <edge id="170_18" from="170" to="18" speed="20.1168"/>
    <edge id="24_19" from="24" to="19" numLanes="3" speed="17.8816">
        <lane index="0" length="223.72320000000002" speed="17.8816"/>
        <lane index="1" length="223.72320000000002" speed="17.8816"/>
        <lane index="2" length="223.72320000000002" speed="17.8816"/>
    </edge>
    <edge id="373_19" from="373" to="19" numLanes="2" speed="17.8816">
        <lane index="0" length="225.85680000000002" speed="17.8816"/>
        <lane index="1" length="225.85680000000002" speed="17.8816"/>
    </edge>
    <edge id="304_19" from="304" to="19" speed="20.1168"/>
    <edge id="174_19" from="174" to="19" numLanes="3" speed="20.1168">
        <lane index="0" length="137.16" speed="20.1168"/>
        <lane index="1" length="855.5736" speed="20.1168"/>
        <lane index="2" length="137.16" speed="20.1168"/>
    </edge>
    <edge id="49_20" from="49" to="20" numLanes="2" speed="15.6464"/>
    <edge id="342_20" from="342" to="20" numLanes="2" speed="15.6464"/>
    <edge id="9_21" from="9" to="21" numLanes="1" speed="20.1168"/>
    <edge id="99_22" from="99" to="22" numLanes="2" speed="20.1168"/>
    <edge id="99_23" from="99" to="23" speed="20.1168"/>
    <edge id="357_24" from="357" to="24" numLanes="3" speed="15.6464">
        <lane index="0" length="73.152" speed="15.6464"/>
        <lane index="1" length="119.1768" speed="15.6464"/>
        <lane index="2" length="119.1768" speed="15.6464"/>
    </edge>
    <edge id="19_24" from="19" to="24" numLanes="3" speed="17.8816">
        <lane index="0" length="223.72320000000002" speed="17.8816"/>
        <lane index="1" length="223.72320000000002" speed="17.8816"/>
        <lane index="2" length="223.72320000000002" speed="17.8816"/>
    </edge>
    <edge id="305_24" from="305" to="24" numLanes="3" speed="20.1168">
        <lane index="0" length="106.68" speed="20.1168"/>
        <lane index="1" length="756.8184" speed="20.1168"/>
        <lane index="2" length="167.64000000000001" speed="20.1168"/>
    </edge>
    <edge id="303_24" from="303" to="24" speed="20.1168"/>
    <edge id="192_25" from="192" to="25" numLanes="3" speed="20.1168"/>
    <edge id="254_25" from="254" to="25" numLanes="3" speed="20.1168"/>
    <edge id="183_26" from="183" to="26" numLanes="3" speed="17.8816"/>
    <edge id="196_26" from="196" to="26" numLanes="3" speed="17.8816"/>
    <edge id="30_27" from="30" to="27" numLanes="3" speed="17.8816"/>
    <edge id="199_28" from="199" to="28" numLanes="1" speed="11.176"/>
    <edge id="169_29" from="169" to="29" numLanes="3" speed="11.176">
        <lane index="0" length="73.152" speed="11.176"/>
        <lane index="1" length="174.34560000000002" speed="11.176"/>
        <lane index="2" length="60.96" speed="11.176"/>
    </edge>
    <edge id="299_29" from="299" to="29" numLanes="2" speed="11.176">
        <lane index="0" length="127.1016" speed="11.176"/>
        <lane index="1" length="45.72" speed="11.176"/>
    </edge>
    <edge id="11_29" from="11" to="29" numLanes="3" speed="17.8816">
        <lane index="0" length="804.672" speed="17.8816"/>
        <lane index="1" length="804.672" speed="17.8816"/>
        <lane index="2" length="45.72" speed="17.8816"/>
    </edge>
    <edge id="30_29" from="30" to="29" numLanes="4" speed="17.8816">
        <lane index="0" length="797.6616" speed="17.8816"/>
        <lane index="1" length="797.6616" speed="17.8816"/>
        <lane index="2" length="797.6616" speed="17.8816"/>
        <lane index="3" length="45.72" speed="17.8816"/>
    </edge>
    <edge id="31_30" from="31" to="30" numLanes="4" speed="17.8816">
        <lane index="0" length="409.956" speed="17.8816"/>
        <lane index="1" length="409.956" speed="17.8816"/>
        <lane index="2" length="409.956" speed="17.8816"/>
        <lane index="3" length="45.72" speed="17.8816"/>
    </edge>
    <edge id="27_30" from="27" to="30" numLanes="3" speed="17.8816">
        <lane index="0" length="231.34320000000002" speed="17.8816"/>
        <lane index="1" length="231.34320000000002" speed="17.8816"/>
        <lane index="2" length="45.72" speed="17.8816"/>
    </edge>
    <edge id="29_30" from="29" to="30" numLanes="4" speed="17.8816">
        <lane index="0" length="76.2" speed="17.8816"/>
        <lane index="1" length="797.6616" speed="17.8816"/>
        <lane index="2" length="797.6616" speed="17.8816"/>
        <lane index="3" length="76.2" speed="17.8816"/>
    </edge>
    <edge id="51_30" from="51" to="30" numLanes="4" speed="17.8816">
        <lane index="0" length="402.336" speed="17.8816"/>
        <lane index="1" length="402.336" speed="17.8816"/>
        <lane index="2" length="402.336" speed="17.8816"/>
        <lane index="3" length="86.86800000000001" speed="17.8816"/>
    </edge>
    <edge id="33_31" from="33" to="31" numLanes="3" speed="17.8816">
        <lane index="0" length="398.0688" speed="17.8816"/>
        <lane index="1" length="398.0688" speed="17.8816"/>
        <lane index="2" length="398.0688" speed="17.8816"/>
    </edge>
    <edge id="30_31" from="30" to="31" numLanes="3" speed="17.8816">
        <lane index="0" length="409.956" speed="17.8816"/>
        <lane index="1" length="409.956" speed="17.8816"/>
        <lane index="2" length="45.72" speed="17.8816"/>
    </edge>
    <edge id="320_31" from="320" to="31" numLanes="2" speed="11.176">
        <lane index="0" length="242.316" speed="11.176"/>
        <lane index="1" length="242.316" speed="11.176"/>
    </edge>
    <edge id="456_32" from="456" to="32" numLanes="3" speed="15.6464"/>
    <edge id="33_32" from="33" to="32" numLanes="2" speed="15.6464"/>
    <edge id="32_33" from="32" to="33" numLanes="3" speed="15.6464">
        <lane index="0" length="462.07680000000005" speed="15.6464"/>
        <lane index="1" length="462.07680000000005" speed="15.6464"/>
        <lane index="2" length="45.72" speed="15.6464"/>
    </edge>
    <edge id="31_33" from="31" to="33" numLanes="3" speed="17.8816">
        <lane index="0" length="398.0688" speed="17.8816"/>
        <lane index="1" length="398.0688" speed="17.8816"/>
        <lane index="2" length="45.72" speed="17.8816"/>
    </edge>
    <edge id="179_33" from="179" to="33" numLanes="2" speed="20.1168">
        <lane index="0" length="207.5688" speed="20.1168"/>
        <lane index="1" length="30.48" speed="20.1168"/>
    </edge>
    <edge id="34_33" from="34" to="33" numLanes="2" speed="20.1168">
        <lane index="0" length="277.9776" speed="20.1168"/>
        <lane index="1" length="30.48" speed="20.1168"/>
    </edge>
    <edge id="33_34" from="33" to="34" numLanes="1" speed="20.1168"/>
    <edge id="465_35" from="465" to="35" numLanes="4" speed="17.8816">
        <lane index="0" length="1529.1816000000001" speed="17.8816"/>
        <lane index="1" length="1529.1816000000001" speed="17.8816"/>
        <lane index="2" length="1529.1816000000001" speed="17.8816"/>
        <lane index="3" length="45.72" speed="17.8816"/>
    </edge>
    <edge id="116_35" from="116" to="35" numLanes="5" speed="17.8816">
        <lane index="0" length="76.2" speed="17.8816"/>
        <lane index="1" length="220.37040000000002" speed="17.8816"/>
        <lane index="2" length="220.37040000000002" speed="17.8816"/>
        <lane index="3" length="76.2" speed="17.8816"/>
        <lane index="4" length="76.2" speed="17.8816"/>
    </edge>
    <edge id="39_35" from="39" to="35" numLanes="3" speed="17.8816">
        <lane index="0" length="768.4008" speed="17.8816"/>
        <lane index="1" length="768.4008" speed="17.8816"/>
        <lane index="2" length="768.4008" speed="17.8816"/>
    </edge>
    <edge id="36_35" from="36" to="35" numLanes="4" speed="17.8816">
        <lane index="0" length="100.584" speed="17.8816"/>
        <lane index="1" length="368.5032" speed="17.8816"/>
        <lane index="2" length="368.5032" speed="17.8816"/>
        <lane index="3" length="368.5032" speed="17.8816"/>
    </edge>
    <edge id="35_36" from="35" to="36" numLanes="3" speed="17.8816"/>
    <edge id="204_37" from="204" to="37" numLanes="4" speed="15.6464">
        <lane index="0" length="133.1976" speed="15.6464"/>
        <lane index="1" length="133.1976" speed="15.6464"/>
        <lane index="2" length="133.1976" speed="15.6464"/>
        <lane index="3" length="133.1976" speed="15.6464"/>
    </edge>
    <edge id="456_37" from="456" to="37" numLanes="5" speed="15.6464">
        <lane index="0" length="48.768" speed="15.6464"/>
        <lane index="1" length="276.4536" speed="15.6464"/>
        <lane index="2" length="276.4536" speed="15.6464"/>
        <lane index="3" length="276.4536" speed="15.6464"/>
        <lane index="4" length="276.4536" speed="15.6464"/>
    </edge>
    <edge id="624_37" from="624" to="37" speed="20.1168"/>
    <edge id="623_37" from="623" to="37" numLanes="3" speed="20.1168">
        <lane index="0" length="76.2" speed="20.1168"/>
        <lane index="1" length="435.86400000000003" speed="20.1168"/>
        <lane index="2" length="76.2" speed="20.1168"/>
    </edge>
    <edge id="198_38" from="198" to="38" numLanes="3" speed="17.8816"/>
    <edge id="199_38" from="199" to="38" numLanes="3" speed="17.8816"/>
    <edge id="41_39" from="41" to="39" numLanes="2" speed="11.176">
        <lane index="0" length="207.264" speed="11.176"/>
        <lane index="1" length="30.48" speed="11.176"/>
    </edge>
    <edge id="40_39" from="40" to="39" numLanes="2" speed="11.176">
        <lane index="0" length="109.72800000000001" speed="11.176"/>
        <lane index="1" length="30.48" speed="11.176"/>
    </edge>
    <edge id="51_39" from="51" to="39" numLanes="3" speed="17.8816">
        <lane index="0" length="423.672" speed="17.8816"/>
        <lane index="1" length="423.672" speed="17.8816"/>
        <lane index="2" length="45.72" speed="17.8816"/>
    </edge>
    <edge id="35_39" from="35" to="39" numLanes="4" speed="17.8816">
        <lane index="0" length="768.4008" speed="17.8816"/>
        <lane index="1" length="768.4008" speed="17.8816"/>
        <lane index="2" length="768.4008" speed="17.8816"/>
        <lane index="3" length="45.72" speed="17.8816"/>
    </edge>
    <edge id="39_40" from="39" to="40" numLanes="1" speed="11.176"/>
    <edge id="39_41" from="39" to="41" numLanes="1" speed="11.176"/>
    <edge id="43_42" from="43" to="42" numLanes="2" speed="11.176">
        <lane index="0" length="147.828" speed="11.176"/>
        <lane index="1" length="147.828" speed="11.176"/>
    </edge>
    <edge id="236_42" from="236" to="42" numLanes="3" speed="17.8816">
        <lane index="0" length="30.48" speed="17.8816"/>
        <lane index="1" length="603.504" speed="17.8816"/>
        <lane index="2" length="603.504" speed="17.8816"/>
    </edge>
    <edge id="11_42" from="11" to="42" numLanes="4" speed="17.8816">
        <lane index="0" length="905.5608000000001" speed="17.8816"/>
        <lane index="1" length="905.5608000000001" speed="17.8816"/>
        <lane index="2" length="905.5608000000001" speed="17.8816"/>
        <lane index="3" length="45.72" speed="17.8816"/>
    </edge>
    <edge id="42_43" from="42" to="43" numLanes="1" speed="11.176"/>
    <edge id="200_44" from="200" to="44" numLanes="3" speed="17.8816"/>
    <edge id="214_44" from="214" to="44" numLanes="3" speed="17.8816"/>
    <edge id="214_45" from="214" to="45" numLanes="2" speed="17.8816"/>
    <edge id="215_45" from="215" to="45" numLanes="3" speed="17.8816"/>
    <edge id="215_46" from="215" to="46" numLanes="3" speed="17.8816"/>
    <edge id="247_46" from="247" to="46" numLanes="3" speed="17.8816"/>
    <edge id="333_47" from="333" to="47" numLanes="3" speed="11.176">
        <lane index="0" length="30.48" speed="11.176"/>
        <lane index="1" length="279.8064" speed="11.176"/>
        <lane index="2" length="30.48" speed="11.176"/>
    </edge>
    <edge id="334_47" from="334" to="47" numLanes="2" speed="11.176">
        <lane index="0" length="168.24960000000002" speed="11.176"/>
        <lane index="1" length="45.72" speed="11.176"/>
    </edge>
    <edge id="949_47" from="949" to="47" numLanes="2" speed="20.1168">
        <lane index="0" length="834.8472" speed="20.1168"/>
        <lane index="1" length="834.8472" speed="20.1168"/>
    </edge>
    <edge id="447_47" from="447" to="47" numLanes="3" speed="20.1168">
        <lane index="0" length="766.2672" speed="20.1168"/>
        <lane index="1" length="766.2672" speed="20.1168"/>
        <lane index="2" length="766.2672" speed="20.1168"/>
    </edge>
    <edge id="271_48" from="271" to="48" numLanes="3" speed="17.8816"/>
    <edge id="275_48" from="275" to="48" numLanes="4" speed="17.8816"/>
    <edge id="62_49" from="62" to="49" numLanes="3" speed="15.6464">
        <lane index="0" length="608.3808" speed="15.6464"/>
        <lane index="1" length="608.3808" speed="15.6464"/>
        <lane index="2" length="45.72" speed="15.6464"/>
    </edge>
    <edge id="20_49" from="20" to="49" numLanes="3" speed="15.6464">
        <lane index="0" length="412.3944" speed="15.6464"/>
        <lane index="1" length="412.3944" speed="15.6464"/>
        <lane index="2" length="412.3944" speed="15.6464"/>
    </edge>
    <edge id="68_49" from="68" to="49" numLanes="2" speed="11.176">
        <lane index="0" length="45.72" speed="11.176"/>
        <lane index="1" length="45.72" speed="11.176"/>
    </edge>
    <edge id="342_50" from="342" to="50" numLanes="1" speed="11.176"/>
    <edge id="59_51" from="59" to="51" numLanes="1" speed="11.176">
        <lane index="0" length="177.08880000000002" speed="11.176"/>
    </edge>
    <edge id="53_51" from="53" to="51" numLanes="1" speed="11.176">
        <lane index="0" length="116.73840000000001" speed="11.176"/>
    </edge>
    <edge id="30_51" from="30" to="51" numLanes="3" speed="17.8816">
        <lane index="0" length="402.336" speed="17.8816"/>
        <lane index="1" length="402.336" speed="17.8816"/>
        <lane index="2" length="45.72" speed="17.8816"/>
    </edge>
    <edge id="39_51" from="39" to="51" numLanes="3" speed="17.8816">
        <lane index="0" length="423.672" speed="17.8816"/>
        <lane index="1" length="423.672" speed="17.8816"/>
        <lane index="2" length="423.672" speed="17.8816"/>
    </edge>
    <edge id="63_52" from="63" to="52" numLanes="1" speed="20.1168"/>
    <edge id="51_53" from="51" to="53" numLanes="1" speed="11.176"/>
    <edge id="178_54" from="178" to="54" numLanes="2" speed="15.6464"/>
    <edge id="189_55" from="189" to="55" numLanes="4" speed="17.8816">
        <lane index="0" length="135.3312" speed="17.8816"/>
        <lane index="1" length="135.3312" speed="17.8816"/>
        <lane index="2" length="135.3312" speed="17.8816"/>
        <lane index="3" length="135.3312" speed="17.8816"/>
    </edge>
    <edge id="447_55" from="447" to="55" numLanes="5" speed="17.8816">
        <lane index="0" length="45.72" speed="17.8816"/>
        <lane index="1" length="385.8768" speed="17.8816"/>
        <lane index="2" length="385.8768" speed="17.8816"/>
        <lane index="3" length="385.8768" speed="17.8816"/>
        <lane index="4" length="385.8768" speed="17.8816"/>
    </edge>
    <edge id="620_55" from="620" to="55" speed="20.1168"/>
    <edge id="619_55" from="619" to="55" numLanes="3" speed="20.1168">
        <lane index="0" length="76.2" speed="20.1168"/>
        <lane index="1" length="357.22560000000004" speed="20.1168"/>
        <lane index="2" length="76.2" speed="20.1168"/>
    </edge>
    <edge id="61_56" from="61" to="56" numLanes="4" speed="17.8816">
        <lane index="0" length="600.7608" speed="17.8816"/>
        <lane index="1" length="600.7608" speed="17.8816"/>
        <lane index="2" length="600.7608" speed="17.8816"/>
        <lane index="3" length="45.72" speed="17.8816"/>
    </edge>
    <edge id="203_56" from="203" to="56" numLanes="3" speed="17.8816">
        <lane index="0" length="637.6416" speed="17.8816"/>
        <lane index="1" length="637.6416" speed="17.8816"/>
        <lane index="2" length="45.72" speed="17.8816"/>
    </edge>
    <edge id="386_56" from="386" to="56" numLanes="2" speed="11.176">
        <lane index="0" length="252.6792" speed="11.176"/>
        <lane index="1" length="45.72" speed="11.176"/>
    </edge>
    <edge id="57_56" from="57" to="56" numLanes="2" speed="20.1168">
        <lane index="0" length="385.572" speed="20.1168"/>
        <lane index="1" length="30.48" speed="20.1168"/>
    </edge>
    <edge id="56_57" from="56" to="57" numLanes="1" speed="20.1168"/>
    <edge id="356_58" from="356" to="58" numLanes="3" speed="17.8816">
        <lane index="0" length="391.668" speed="17.8816"/>
        <lane index="1" length="391.668" speed="17.8816"/>
        <lane index="2" length="45.72" speed="17.8816"/>
    </edge>
    <edge id="445_58" from="445" to="58" numLanes="4" speed="17.8816">
        <lane index="0" length="76.2" speed="17.8816"/>
        <lane index="1" length="1627.9368000000002" speed="17.8816"/>
        <lane index="2" length="1627.9368000000002" speed="17.8816"/>
        <lane index="3" length="76.2" speed="17.8816"/>
    </edge>
    <edge id="686_58" from="686" to="58" numLanes="3" speed="20.1168">
        <lane index="0" length="1577.3400000000001" speed="20.1168"/>
        <lane index="1" length="1577.3400000000001" speed="20.1168"/>
        <lane index="2" length="60.96" speed="20.1168"/>
    </edge>
    <edge id="6_58" from="6" to="58" numLanes="3" speed="20.1168">
        <lane index="0" length="1430.4264" speed="20.1168"/>
        <lane index="1" length="1430.4264" speed="20.1168"/>
        <lane index="2" length="45.72" speed="20.1168"/>
    </edge>
    <edge id="51_59" from="51" to="59" numLanes="1" speed="11.176"/>
    <edge id="342_60" from="342" to="60" numLanes="2" speed="15.6464"/>
    <edge id="112_61" from="112" to="61" numLanes="4" speed="17.8816">
        <lane index="0" length="197.2056" speed="17.8816"/>
        <lane index="1" length="197.2056" speed="17.8816"/>
        <lane index="2" length="197.2056" speed="17.8816"/>
        <lane index="3" length="76.2" speed="17.8816"/>
    </edge>
    <edge id="56_61" from="56" to="61" numLanes="3" speed="17.8816">
        <lane index="0" length="600.7608" speed="17.8816"/>
        <lane index="1" length="600.7608" speed="17.8816"/>
        <lane index="2" length="45.72" speed="17.8816"/>
    </edge>
    <edge id="6_61" from="6" to="61" numLanes="3" speed="17.8816">
        <lane index="0" length="169.77360000000002" speed="17.8816"/>
        <lane index="1" length="169.77360000000002" speed="17.8816"/>
        <lane index="2" length="60.96" speed="17.8816"/>
    </edge>
    <edge id="63_61" from="63" to="61" numLanes="4" speed="17.8816">
        <lane index="0" length="804.3672" speed="17.8816"/>
        <lane index="1" length="804.3672" speed="17.8816"/>
        <lane index="2" length="804.3672" speed="17.8816"/>
        <lane index="3" length="76.2" speed="17.8816"/>
    </edge>
    <edge id="345_62" from="345" to="62" numLanes="3" speed="15.6464">
        <lane index="0" length="236.8296" speed="15.6464"/>
        <lane index="1" length="236.8296" speed="15.6464"/>
        <lane index="2" length="45.72" speed="15.6464"/>
    </edge>
    <edge id="49_62" from="49" to="62" numLanes="4" speed="20.1168">
        <lane index="0" length="608.3808" speed="20.1168"/>
        <lane index="1" length="608.3808" speed="20.1168"/>
        <lane index="2" length="608.3808" speed="20.1168"/>
        <lane index="3" length="60.96" speed="20.1168"/>
    </edge>
    <edge id="235_62" from="235" to="62" numLanes="3" speed="15.6464">
        <lane index="0" length="123.7488" speed="15.6464"/>
        <lane index="1" length="123.7488" speed="15.6464"/>
        <lane index="2" length="76.2" speed="15.6464"/>
    </edge>
    <edge id="87_62" from="87" to="62" numLanes="4" speed="15.6464">
        <lane index="0" length="405.384" speed="15.6464"/>
        <lane index="1" length="405.384" speed="15.6464"/>
        <lane index="2" length="405.384" speed="15.6464"/>
        <lane index="3" length="60.96" speed="15.6464"/>
    </edge>
    <edge id="64_63" from="64" to="63" numLanes="2" speed="20.1168">
        <lane index="0" length="140.8176" speed="20.1168"/>
        <lane index="1" length="45.72" speed="20.1168"/>
    </edge>
    <edge id="52_63" from="52" to="63" numLanes="2" speed="20.1168">
        <lane index="0" length="239.8776" speed="20.1168"/>
        <lane index="1" length="30.48" speed="20.1168"/>
    </edge>
    <edge id="61_63" from="61" to="63" numLanes="3" speed="17.8816">
        <lane index="0" length="804.3672" speed="17.8816"/>
        <lane index="1" length="804.3672" speed="17.8816"/>
        <lane index="2" length="45.72" speed="17.8816"/>
    </edge>
    <edge id="235_63" from="235" to="63" numLanes="3" speed="15.6464">
        <lane index="0" length="665.6832" speed="15.6464"/>
        <lane index="1" length="665.6832" speed="15.6464"/>
        <lane index="2" length="45.72" speed="15.6464"/>
    </edge>
    <edge id="63_64" from="63" to="64" numLanes="1" speed="20.1168"/>
    <edge id="251_65" from="251" to="65" numLanes="4" speed="17.8816">
        <lane index="0" length="159.7152" speed="17.8816"/>
        <lane index="1" length="159.7152" speed="17.8816"/>
        <lane index="2" length="159.7152" speed="17.8816"/>
        <lane index="3" length="159.7152" speed="17.8816"/>
    </edge>
    <edge id="949_65" from="949" to="65" numLanes="5" speed="17.8816">
        <lane index="0" length="79.248" speed="17.8816"/>
        <lane index="1" length="255.7272" speed="17.8816"/>
        <lane index="2" length="255.7272" speed="17.8816"/>
        <lane index="3" length="255.7272" speed="17.8816"/>
        <lane index="4" length="255.7272" speed="17.8816"/>
    </edge>
    <edge id="616_65" from="616" to="65" speed="20.1168"/>
    <edge id="614_65" from="614" to="65" numLanes="3" speed="20.1168">
        <lane index="0" length="76.2" speed="20.1168"/>
        <lane index="1" length="483.7176" speed="20.1168"/>
        <lane index="2" length="76.2" speed="20.1168"/>
    </edge>
    <edge id="178_66" from="178" to="66" numLanes="2" speed="15.6464"/>