<?xml version='1.0' encoding='utf-8'?>
<net xmlns:xsi="http://www.w3.org/2001/XMLSchema-instance" version="1.20" junctionCornerDetail="5" limitTurnSpeed="5.50" xsi:noNamespaceSchemaLocation="http://sumo.dlr.de/xsd/net_file.xsd">

    <location netOffset="-381276.95,-3699939.64" convBoundary="0.00,0.00,17028.46,7360.54" origBoundary="-112.277560,33.432507,-112.094333,33.498791" projParameter="+proj=utm +zone=12 +ellps=WGS84 +datum=WGS84 +units=m +no_defs" />

    <edge id=":1_0" function="internal">
        <lane id=":1_0_0" index="0" speed="3.65" length="4.67" shape="1193.81,3272.48 1195.11,3273.10 1195.62,3273.84 1195.34,3274.68 1194.27,3275.65" />
    </edge>
    <edge id=":10_0" function="internal">
        <lane id=":10_0_0" index="0" speed="8.13" length="14.54" shape="10134.24,5228.00 10130.31,5228.57 10127.49,5230.26 10125.77,5233.07 10125.16,5237.01" />
    </edge>
    <edge id=":10_1" function="internal">
        <lane id=":10_1_0" index="0" speed="17.88" length="30.83" shape="10134.24,5228.00 10125.12,5228.51 10118.93,5229.61 10112.73,5230.70 10103.62,5231.19" />
        <lane id=":10_1_1" index="1" speed="17.88" length="30.83" shape="10134.24,5224.80 10125.13,5225.31 10118.93,5226.41 10112.73,5227.50 10103.62,5227.99" />
        <lane id=":10_1_2" index="2" speed="17.88" length="30.83" shape="10134.24,5221.60 10125.13,5222.11 10118.93,5223.21 10112.74,5224.30 10103.63,5224.79" />
    </edge>
    <edge id=":10_4" function="internal">
        <lane id=":10_4_0" index="0" speed="11.35" length="7.99" shape="10134.24,5218.40 10126.33,5217.28" />
    </edge>
    <edge id=":10_19" function="internal">
        <lane id=":10_19_0" index="0" speed="11.35" length="21.69" shape="10126.33,5217.28 10126.18,5217.26 10120.43,5213.81 10116.98,5208.06 10115.85,5200.01" />
    </edge>
    <edge id=":10_5" function="internal">
        <lane id=":10_5_0" index="0" speed="7.31" length="11.70" shape="10128.65,5200.03 10128.99,5203.87 10130.04,5206.61 10131.78,5208.26 10134.23,5208.80" />
    </edge>
    <edge id=":10_6" function="internal">
        <lane id=":10_6_0" index="0" speed="17.88" length="37.15" shape="10128.65,5200.03 10128.12,5211.53 10126.96,5219.86 10125.78,5227.52 10125.16,5237.01" />
        <lane id=":10_6_1" index="1" speed="17.88" length="37.15" shape="10125.45,5200.02 10124.92,5211.52 10123.76,5219.83 10122.58,5227.48 10121.97,5236.97" />
        <lane id=":10_6_2" index="2" speed="17.88" length="37.15" shape="10122.25,5200.02 10121.72,5211.50 10120.56,5219.80 10119.38,5227.44 10118.77,5236.93" />
    </edge>
    <edge id=":10_9" function="internal">
        <lane id=":10_9_0" index="0" speed="10.91" length="9.26" shape="10119.05,5200.01 10118.07,5208.06 10117.55,5209.09" />
    </edge>
    <edge id=":10_20" function="internal">
        <lane id=":10_20_0" index="0" speed="10.91" length="18.02" shape="10117.55,5209.09 10115.18,5213.80 10110.37,5217.25 10103.64,5218.39" />
    </edge>
    <edge id=":10_10" function="internal">
        <lane id=":10_10_0" index="0" speed="7.37" length="11.88" shape="10103.66,5205.59 10107.59,5205.24 10110.39,5204.20 10112.08,5202.45 10112.65,5200.00" />
    </edge>
    <edge id=":10_11" function="internal">
        <lane id=":10_11_0" index="0" speed="17.88" length="30.80" shape="10103.66,5205.59 10112.81,5206.10 10119.09,5207.21 10125.29,5208.31 10134.23,5208.80" />
        <lane id=":10_11_1" index="1" speed="17.88" length="30.80" shape="10103.65,5208.79 10112.81,5209.30 10119.08,5210.41 10125.29,5211.51 10134.23,5212.00" />
        <lane id=":10_11_2" index="2" speed="17.88" length="30.80" shape="10103.65,5211.99 10112.81,5212.50 10119.08,5213.61 10125.29,5214.71 10134.24,5215.20" />
    </edge>
    <edge id=":10_14" function="internal">
        <lane id=":10_14_0" index="0" speed="11.38" length="13.66" shape="10103.64,5215.19 10110.36,5216.55 10115.12,5220.63 10115.32,5221.13" />
    </edge>
    <edge id=":10_21" function="internal">
        <lane id=":10_21_0" index="0" speed="11.38" length="16.35" shape="10115.32,5221.13 10117.92,5227.43 10118.77,5236.93" />
    </edge>
    <edge id=":10_15" function="internal">
        <lane id=":10_15_0" index="0" speed="6.48" length="9.03" shape="10109.17,5236.81 10108.85,5234.35 10107.81,5232.60 10106.07,5231.54 10103.62,5231.19" />
    </edge>
    <edge id=":10_16" function="internal">
        <lane id=":10_16_0" index="0" speed="17.88" length="36.99" shape="10109.17,5236.81 10112.65,5200.00" />
        <lane id=":10_16_1" index="1" speed="17.88" length="36.99" shape="10112.37,5236.85 10115.85,5200.01" />
    </edge>
    <edge id=":10_18" function="internal">
        <lane id=":10_18_0" index="0" speed="11.92" length="9.57" shape="10115.57,5236.89 10116.83,5227.40" />
    </edge>
    <edge id=":10_22" function="internal">
        <lane id=":10_22_0" index="0" speed="11.92" length="22.91" shape="10116.83,5227.40 10120.37,5220.63 10126.17,5216.56 10134.24,5215.20" />
    </edge>
    <edge id=":100_0" function="internal">
        <lane id=":100_0_0" index="0" speed="3.65" length="4.67" shape="15657.39,193.08 15658.16,191.86 15658.95,191.44 15659.76,191.82 15660.59,193.00" />
    </edge>
    <edge id=":101_0" function="internal">
        <lane id=":101_0_0" index="0" speed="3.65" length="4.67" shape="8382.34,6048.91 8381.13,6048.12 8380.72,6047.32 8381.11,6046.52 8382.30,6045.71" />
    </edge>
    <edge id=":102_0" function="internal">
        <lane id=":102_0_0" index="0" speed="3.65" length="4.67" shape="8760.14,6041.64 8761.35,6042.43 8761.76,6043.22 8761.37,6044.03 8760.17,6044.84" />
    </edge>
    <edge id=":103_0" function="internal">
        <lane id=":103_0_0" index="0" speed="3.65" length="4.67" shape="4019.63,4459.22 4020.82,4460.04 4021.21,4460.85 4020.80,4461.64 4019.59,4462.42" />
    </edge>
    <edge id=":104_0" function="internal">
        <lane id=":104_0_0" index="0" speed="3.65" length="4.67" shape="9969.65,6013.54 9968.45,6012.75 9968.04,6011.95 9968.44,6011.15 9969.63,6010.34" />
    </edge>
    <edge id=":105_0" function="internal">
        <lane id=":105_0_0" index="0" speed="20.12" length="8.49" shape="3747.13,4067.04 3746.60,4064.65 3745.48,4063.19 3744.33,4061.72 3743.75,4059.34" />
        <lane id=":105_0_1" index="1" speed="20.12" length="8.49" shape="3750.33,4067.00 3749.80,4064.59 3748.67,4063.11 3747.53,4061.63 3746.95,4059.23" />
        <lane id=":105_0_2" index="2" speed="20.12" length="8.49" shape="3753.53,4066.96 3753.00,4064.53 3751.87,4063.04 3750.73,4061.55 3750.15,4059.12" />
        <lane id=":105_0_3" index="3" speed="20.12" length="8.49" shape="3753.53,4066.96 3753.35,4059.01" />
    </edge>
    <edge id=":105_4" function="internal">
        <lane id=":105_4_0" index="0" speed="20.12" length="8.68" shape="3762.94,4058.69 3763.53,4061.19 3764.67,4062.74 3765.80,4064.29 3766.33,4066.79" />
        <lane id=":105_4_1" index="1" speed="20.12" length="8.68" shape="3759.74,4058.80 3760.33,4061.28 3761.47,4062.81 3762.60,4064.35 3763.13,4066.83" />
        <lane id=":105_4_2" index="2" speed="20.12" length="8.68" shape="3756.55,4058.91 3757.13,4061.37 3758.27,4062.89 3759.40,4064.41 3759.93,4066.87" />
        <lane id=":105_4_3" index="3" speed="20.12" length="8.68" shape="3756.55,4058.91 3756.73,4066.92" />
    </edge>
    <edge id=":106_0" function="internal">
        <lane id=":106_0_0" index="0" speed="20.12" length="8.64" shape="2319.67,5279.49 2317.18,5279.99 2315.62,5281.09 2314.06,5282.18 2311.57,5282.66" />
        <lane id=":106_0_1" index="1" speed="20.12" length="8.64" shape="2319.66,5276.29 2317.18,5276.79 2315.63,5277.89 2314.08,5278.98 2311.60,5279.46" />
        <lane id=":106_0_2" index="2" speed="20.12" length="8.64" shape="2319.65,5273.09 2317.19,5273.59 2315.64,5274.69 2314.09,5275.78 2311.63,5276.26" />
        <lane id=":106_0_3" index="3" speed="20.12" length="8.64" shape="2319.65,5273.09 2311.65,5273.06" />
    </edge>
    <edge id=":106_4" function="internal">
        <lane id=":106_4_0" index="0" speed="20.12" length="7.94" shape="2311.73,5263.46 2319.64,5263.49" />
        <lane id=":106_4_1" index="1" speed="20.12" length="7.94" shape="2311.70,5266.66 2319.64,5266.69" />
        <lane id=":106_4_2" index="2" speed="20.12" length="7.94" shape="2311.68,5269.86 2319.65,5269.89" />
    </edge>
    <edge id=":107_0" function="internal">
        <lane id=":107_0_0" index="0" speed="6.49" length="9.03" shape="15757.59,368.02 15757.23,365.57 15756.18,363.82 15754.42,362.79 15751.96,362.47" />
    </edge>
    <edge id=":107_1" function="internal">
        <lane id=":107_1_0" index="0" speed="10.42" length="24.63" shape="15757.59,368.02 15758.53,361.35 15761.37,356.56 15766.13,353.65 15772.80,352.62" />
    </edge>
    <edge id=":107_2" function="internal">
        <lane id=":107_2_0" index="0" speed="7.41" length="11.93" shape="15772.88,359.02 15770.38,359.61 15768.60,361.30 15767.54,364.10 15767.19,367.99" />
    </edge>
    <edge id=":107_3" function="internal">
        <lane id=":107_3_0" index="0" speed="15.65" length="21.27" shape="15772.88,359.02 15766.88,359.60 15762.65,360.75 15758.30,361.90 15751.96,362.47" />
        <lane id=":107_3_1" index="1" speed="15.65" length="21.27" shape="15772.84,355.82 15766.85,356.40 15762.61,357.55 15758.26,358.70 15751.93,359.27" />
    </edge>
    <edge id=":107_5" function="internal">
        <lane id=":107_5_0" index="0" speed="10.32" length="7.68" shape="15772.84,355.82 15766.15,354.95 15765.34,354.48" />
    </edge>
    <edge id=":107_14" function="internal">
        <lane id=":107_14_0" index="0" speed="10.32" length="16.82" shape="15765.34,354.48 15761.37,352.16 15758.50,347.45 15757.53,340.82" />
    </edge>
    <edge id=":107_6" function="internal">
        <lane id=":107_6_0" index="0" speed="7.27" length="11.61" shape="15767.13,340.81 15767.49,344.60 15768.55,347.30 15770.31,348.91 15772.76,349.42" />
    </edge>
    <edge id=":107_7" function="internal">
        <lane id=":107_7_0" index="0" speed="20.12" length="27.19" shape="15767.13,340.81 15767.19,367.99" />
        <lane id=":107_7_1" index="1" speed="20.12" length="27.19" shape="15763.93,340.81 15763.99,368.00" />
    </edge>
    <edge id=":107_9" function="internal">
        <lane id=":107_9_0" index="0" speed="9.36" length="19.68" shape="15760.73,340.81 15760.19,347.45 15758.54,352.21 15755.77,355.08 15751.89,356.07" />
    </edge>
    <edge id=":107_10" function="internal">
        <lane id=":107_10_0" index="0" speed="6.57" length="9.17" shape="15751.79,346.47 15754.31,346.09 15756.10,345.02 15757.18,343.27 15757.53,340.82" />
    </edge>
    <edge id=":107_11" function="internal">
        <lane id=":107_11_0" index="0" speed="15.65" length="21.26" shape="15751.79,346.47 15758.13,346.90 15762.50,347.95 15766.76,349.00 15772.76,349.42" />
        <lane id=":107_11_1" index="1" speed="15.65" length="21.26" shape="15751.82,349.67 15758.16,350.10 15762.54,351.15 15766.80,352.20 15772.80,352.62" />
    </edge>
    <edge id=":107_13" function="internal">
        <lane id=":107_13_0" index="0" speed="9.31" length="7.29" shape="15751.86,352.87 15755.75,353.78 15758.06,356.12" />
    </edge>
    <edge id=":107_15" function="internal">
        <lane id=":107_15_0" index="0" speed="9.31" length="12.40" shape="15758.06,356.12 15758.54,356.60 15760.22,361.35 15760.79,368.01" />
    </edge>
    <edge id=":108_0" function="internal">
        <lane id=":108_0_0" index="0" speed="3.65" length="4.67" shape="5144.67,4064.82 5143.50,4063.99 5143.12,4063.17 5143.54,4062.39 5144.77,4061.62" />
    </edge>
    <edge id=":109_0" function="internal">
        <lane id=":109_0_0" index="0" speed="20.12" length="9.08" shape="5541.36,3689.01 5538.68,3689.98 5537.37,3692.16 5536.06,3694.36 5533.38,3695.34" />
        <lane id=":109_0_1" index="1" speed="20.12" length="9.08" shape="5541.36,3689.01 5538.91,3689.48 5537.38,3690.56 5535.84,3691.66 5533.39,3692.14" />
        <lane id=":109_0_2" index="2" speed="20.12" length="9.08" shape="5541.40,3685.81 5538.95,3686.28 5537.40,3687.36 5535.86,3688.46 5533.41,3688.94" />
        <lane id=":109_0_3" index="3" speed="20.12" length="9.08" shape="5541.40,3685.81 5533.42,3685.74" />
    </edge>
    <edge id=":109_4" function="internal">
        <lane id=":109_4_0" index="0" speed="20.12" length="8.03" shape="5533.46,3676.14 5541.52,3676.21" />
        <lane id=":109_4_1" index="1" speed="20.12" length="8.03" shape="5533.45,3679.34 5541.48,3679.41" />
        <lane id=":109_4_2" index="2" speed="20.12" length="8.03" shape="5533.43,3682.54 5541.44,3682.61" />
    </edge>
    <edge id=":11_0" function="internal">
        <lane id=":11_0_0" index="0" speed="7.50" length="12.17" shape="11730.30,5215.07 11729.82,5211.03 11728.68,5208.15 11726.88,5206.44 11724.43,5205.89" />
    </edge>
    <edge id=":11_1" function="internal">
        <lane id=":11_1_0" index="0" speed="17.88" length="34.01" shape="11733.50,5214.97 11732.48,5180.96" />
        <lane id=":11_1_1" index="1" speed="17.88" length="34.01" shape="11736.70,5214.86 11735.67,5180.88" />
    </edge>
    <edge id=":11_3" function="internal">
        <lane id=":11_3_0" index="0" speed="11.81" length="15.53" shape="11739.90,5214.76 11740.75,5205.17 11743.30,5199.84" />
    </edge>
    <edge id=":11_18" function="internal">
        <lane id=":11_18_0" index="0" speed="11.81" length="17.09" shape="11743.30,5199.84 11744.04,5198.29 11749.76,5194.11 11757.91,5192.63" />
    </edge>
    <edge id=":11_4" function="internal">
        <lane id=":11_4_0" index="0" speed="6.47" length="9.03" shape="11758.14,5208.63 11755.68,5209.01 11753.96,5210.09 11752.96,5211.87 11752.69,5214.33" />
    </edge>
    <edge id=":11_5" function="internal">
        <lane id=":11_5_0" index="0" speed="17.88" length="33.67" shape="11758.09,5205.43 11724.43,5205.89" />
        <lane id=":11_5_1" index="1" speed="17.88" length="33.67" shape="11758.05,5202.23 11724.38,5202.69" />
        <lane id=":11_5_2" index="2" speed="17.88" length="33.67" shape="11758.00,5199.03 11724.34,5199.49" />
    </edge>
    <edge id=":11_8" function="internal">
        <lane id=":11_8_0" index="0" speed="11.01" length="14.59" shape="11757.96,5195.83 11749.76,5194.99 11744.02,5192.28" />
    </edge>
    <edge id=":11_19" function="internal">
        <lane id=":11_19_0" index="0" speed="11.01" length="12.97" shape="11744.02,5192.28 11743.84,5192.20 11740.21,5187.47 11738.87,5180.79" />
    </edge>
    <edge id=":11_9" function="internal">
        <lane id=":11_9_0" index="0" speed="6.71" length="9.59" shape="11751.67,5180.46 11752.11,5183.02 11753.28,5184.83 11755.19,5185.90 11757.83,5186.23" />
    </edge>
    <edge id=":11_10" function="internal">
        <lane id=":11_10_0" index="0" speed="17.88" length="33.91" shape="11751.67,5180.46 11752.69,5214.33" />
        <lane id=":11_10_1" index="1" speed="17.88" length="33.91" shape="11748.47,5180.55 11749.49,5214.44" />
        <lane id=":11_10_2" index="2" speed="17.88" length="33.91" shape="11745.27,5180.63 11746.29,5214.54" />
    </edge>
    <edge id=":11_13" function="internal">
        <lane id=":11_13_0" index="0" speed="10.80" length="11.33" shape="11742.07,5180.71 11741.11,5187.43 11738.56,5191.19" />
    </edge>
    <edge id=":11_20" function="internal">
        <lane id=":11_20_0" index="0" speed="10.80" length="15.64" shape="11738.56,5191.19 11737.83,5192.27 11732.22,5195.22 11724.30,5196.29" />
    </edge>
    <edge id=":11_14" function="internal">
        <lane id=":11_14_0" index="0" speed="7.20" length="11.41" shape="11724.16,5186.69 11727.85,5186.29 11730.47,5185.20 11732.01,5183.42 11732.48,5180.96" />
    </edge>
    <edge id=":11_15" function="internal">
        <lane id=":11_15_0" index="0" speed="17.88" length="33.67" shape="11724.16,5186.69 11757.83,5186.23" />
        <lane id=":11_15_1" index="1" speed="17.88" length="33.67" shape="11724.21,5189.89 11757.87,5189.43" />
    </edge>
    <edge id=":11_17" function="internal">
        <lane id=":11_17_0" index="0" speed="11.95" length="12.32" shape="11724.25,5193.09 11732.23,5194.35 11735.72,5196.76" />
    </edge>
    <edge id=":11_21" function="internal">
        <lane id=":11_21_0" index="0" speed="11.95" length="20.11" shape="11735.72,5196.76 11738.02,5198.36 11741.65,5205.13 11743.10,5214.65" />
    </edge>
    <edge id=":110_0" function="internal">
        <lane id=":110_0_0" index="0" speed="3.65" length="4.67" shape="15761.03,465.00 15760.23,466.20 15759.43,466.60 15758.63,466.21 15757.83,465.01" />
    </edge>
    <edge id=":111_0" function="internal">
        <lane id=":111_0_0" index="0" speed="3.65" length="4.67" shape="15757.31,189.53 15758.11,188.33 15758.90,187.93 15759.71,188.33 15760.51,189.53" />
    </edge>
    <edge id=":112_0" function="internal">
        <lane id=":112_0_0" index="0" speed="3.65" length="4.67" shape="13262.71,187.10 13263.50,185.89 13264.29,185.48 13265.10,185.87 13265.91,187.07" />
    </edge>
    <edge id=":113_0" function="internal">
        <lane id=":113_0_0" index="0" speed="6.99" length="9.78" shape="993.17,3646.68 990.74,3647.04 988.90,3648.19 987.65,3650.14 986.99,3652.90" />
    </edge>
    <edge id=":113_1" function="internal">
        <lane id=":113_1_0" index="0" speed="20.12" length="17.60" shape="993.17,3646.68 975.55,3646.28" />
        <lane id=":113_1_1" index="1" speed="20.12" length="17.60" shape="993.22,3643.48 975.65,3643.08" />
    </edge>
    <edge id=":113_3" function="internal">
        <lane id=":113_3_0" index="0" speed="20.12" length="18.95" shape="976.03,3630.29 981.35,3631.45 984.68,3633.73 988.01,3636.00 993.33,3637.08" />
        <lane id=":113_3_1" index="1" speed="20.12" length="18.95" shape="975.94,3633.49 981.26,3634.65 984.60,3636.93 987.95,3639.19 993.27,3640.28" />
    </edge>
    <edge id=":113_5" function="internal">
        <lane id=":113_5_0" index="0" speed="9.71" length="10.05" shape="975.84,3636.69 981.40,3637.85 984.76,3640.64" />
        <lane id=":113_5_1" index="1" speed="8.53" length="3.71" shape="975.74,3639.89 979.36,3640.69" />
    </edge>
    <edge id=":113_9" function="internal">
        <lane id=":113_9_0" index="0" speed="9.71" length="12.76" shape="984.76,3640.64 985.12,3640.93 986.98,3645.95 986.99,3652.90" />
    </edge>
    <edge id=":113_10" function="internal">
        <lane id=":113_10_0" index="0" speed="8.53" length="13.63" shape="979.36,3640.69 979.81,3640.78 982.51,3643.19 983.84,3647.10 983.81,3652.53" />
    </edge>
    <edge id=":113_7" function="internal">
        <lane id=":113_7_0" index="0" speed="6.33" length="9.04" shape="980.63,3652.16 980.56,3649.65 979.69,3647.84 978.02,3646.72 975.55,3646.28" />
    </edge>
    <edge id=":113_8" function="internal">
        <lane id=":113_8_0" index="0" speed="9.61" length="19.37" shape="980.63,3652.16 981.94,3646.89 984.49,3643.16 988.27,3640.95 993.27,3640.28" />
    </edge>
    <edge id=":114_0" function="internal">
        <lane id=":114_0_0" index="0" speed="8.02" length="14.46" shape="841.25,3642.25 838.78,3642.92 836.99,3645.10 835.89,3648.80 835.48,3654.00" />
    </edge>
    <edge id=":114_1" function="internal">
        <lane id=":114_1_0" index="0" speed="20.12" length="22.03" shape="841.25,3642.25 835.29,3643.08 831.12,3645.18 826.79,3647.31 820.35,3648.21" />
        <lane id=":114_1_1" index="1" speed="20.12" length="22.03" shape="841.34,3639.05 835.38,3639.88 831.21,3641.98 826.86,3644.11 820.40,3645.01" />
    </edge>
    <edge id=":114_3" function="internal">
        <lane id=":114_3_0" index="0" speed="20.12" length="20.95" shape="820.72,3625.81 841.73,3626.25" />
        <lane id=":114_3_1" index="1" speed="20.12" length="20.95" shape="820.67,3629.01 841.63,3629.45" />
        <lane id=":114_3_2" index="2" speed="20.12" length="20.95" shape="820.61,3632.21 841.53,3632.65" />
        <lane id=":114_3_3" index="3" speed="20.12" length="20.95" shape="820.56,3635.41 841.44,3635.85" />
    </edge>
    <edge id=":114_7" function="internal">
        <lane id=":114_7_0" index="0" speed="10.89" length="11.41" shape="820.56,3635.41 827.17,3636.66 830.91,3639.47" />
    </edge>
    <edge id=":114_11" function="internal">
        <lane id=":114_11_0" index="0" speed="10.89" length="15.68" shape="830.91,3639.47 831.86,3640.18 834.63,3645.96 835.48,3654.00" />
    </edge>
    <edge id=":114_8" function="internal">
        <lane id=":114_8_0" index="0" speed="6.52" length="9.03" shape="825.88,3653.89 825.56,3651.44 824.53,3649.67 822.80,3648.60 820.35,3648.21" />
        <lane id=":114_8_1" index="1" speed="8.01" length="14.18" shape="829.08,3653.93 828.58,3650.08 826.96,3647.31 824.24,3645.62 820.40,3645.01" />
    </edge>
    <edge id=":114_10" function="internal">
        <lane id=":114_10_0" index="0" speed="9.87" length="22.47" shape="832.28,3653.97 832.93,3645.94 834.68,3640.25 837.51,3636.88 841.44,3635.85" />
    </edge>
    <edge id=":115_0" function="internal">
        <lane id=":115_0_0" index="0" speed="3.65" length="4.67" shape="14388.58,3211.77 14387.43,3210.90 14387.08,3210.08 14387.53,3209.30 14388.78,3208.58" />
    </edge>
    <edge id=":116_0" function="internal">
        <lane id=":116_0_0" index="0" speed="3.65" length="4.67" shape="14940.39,5368.78 14939.60,5369.99 14938.81,5370.40 14938.00,5370.01 14937.19,5368.82" />
    </edge>
    <edge id=":117_0" function="internal">
        <lane id=":117_0_0" index="0" speed="3.65" length="4.67" shape="14337.66,3155.64 14336.38,3154.97 14335.90,3154.22 14336.21,3153.38 14337.32,3152.45" />
    </edge>
    <edge id=":118_0" function="internal">
        <lane id=":118_0_0" index="0" speed="7.41" length="11.85" shape="7739.81,5291.58 7739.34,5287.70 7738.22,5284.93 7736.43,5283.28 7733.97,5282.75" />
    </edge>
    <edge id=":118_1" function="internal">
        <lane id=":118_1_0" index="0" speed="11.18" length="30.65" shape="7739.81,5291.58 7740.04,5283.29 7740.82,5274.42 7741.62,5266.49 7741.89,5261.01" />
    </edge>
    <edge id=":118_2" function="internal">
        <lane id=":118_2_0" index="0" speed="10.38" length="11.21" shape="7743.00,5291.49 7743.51,5283.42 7744.55,5280.47" />
    </edge>
    <edge id=":118_15" function="internal">
        <lane id=":118_15_0" index="0" speed="10.38" length="13.40" shape="7744.55,5280.47 7745.56,5277.61 7749.15,5274.05 7754.30,5272.75" />
    </edge>
    <edge id=":118_3" function="internal">
        <lane id=":118_3_0" index="0" speed="7.28" length="11.58" shape="7754.67,5285.55 7750.90,5286.00 7748.24,5287.13 7746.67,5288.93 7746.20,5291.39" />
    </edge>
    <edge id=":118_4" function="internal">
        <lane id=":118_4_0" index="0" speed="17.88" length="20.90" shape="7754.67,5285.55 7748.50,5285.22 7744.32,5284.22 7740.14,5283.18 7733.97,5282.75" />
        <lane id=":118_4_1" index="1" speed="17.88" length="20.90" shape="7754.57,5282.35 7748.42,5282.02 7744.26,5281.02 7740.10,5279.98 7733.94,5279.55" />
        <lane id=":118_4_2" index="2" speed="17.88" length="20.90" shape="7754.48,5279.15 7748.35,5278.82 7744.20,5277.82 7740.05,5276.78 7733.91,5276.35" />
    </edge>
    <edge id=":118_7" function="internal">
        <lane id=":118_7_0" index="0" speed="9.91" length="9.86" shape="7754.39,5275.95 7749.18,5275.14 7745.46,5272.46" />
    </edge>
    <edge id=":118_16" function="internal">
        <lane id=":118_16_0" index="0" speed="9.91" length="12.17" shape="7745.46,5272.46 7745.36,5272.39 7742.93,5267.67 7741.89,5261.01" />
    </edge>
    <edge id=":118_8" function="internal">
        <lane id=":118_8_0" index="0" speed="6.60" length="9.21" shape="7748.28,5260.72 7748.74,5263.25 7749.87,5265.03 7751.66,5266.06 7754.11,5266.35" />
    </edge>
    <edge id=":118_9" function="internal">
        <lane id=":118_9_0" index="0" speed="11.18" length="30.76" shape="7748.28,5260.72 7748.13,5269.03 7747.36,5277.93 7746.53,5285.90 7746.20,5291.39" />
    </edge>
    <edge id=":118_10" function="internal">
        <lane id=":118_10_0" index="0" speed="9.68" length="8.73" shape="7745.08,5260.87 7744.65,5267.60 7743.88,5269.43" />
    </edge>
    <edge id=":118_17" function="internal">
        <lane id=":118_17_0" index="0" speed="9.68" length="13.10" shape="7743.88,5269.43 7742.64,5272.42 7739.06,5275.33 7733.91,5276.35" />
    </edge>
    <edge id=":118_11" function="internal">
        <lane id=":118_11_0" index="0" speed="7.10" length="11.25" shape="7733.82,5266.75 7737.44,5266.36 7740.00,5265.27 7741.48,5263.49 7741.89,5261.01" />
    </edge>
    <edge id=":118_12" function="internal">
        <lane id=":118_12_0" index="0" speed="17.88" length="20.33" shape="7733.82,5266.75 7754.11,5266.35" />
        <lane id=":118_12_1" index="1" speed="17.88" length="20.33" shape="7733.85,5269.95 7754.21,5269.55" />
    </edge>
    <edge id=":118_14" function="internal">
        <lane id=":118_14_0" index="0" speed="10.47" length="5.07" shape="7733.88,5273.15 7738.84,5274.19" />
    </edge>
    <edge id=":118_18" function="internal">
        <lane id=":118_18_0" index="0" speed="10.47" length="19.60" shape="7738.84,5274.19 7739.07,5274.24 7742.85,5277.65 7745.23,5283.37 7746.20,5291.39" />
    </edge>
    <edge id=":12_0" function="internal">
        <lane id=":12_0_0" index="0" speed="3.65" length="4.67" shape="4252.61,3288.67 4253.95,3289.19 4254.51,3289.89 4254.29,3290.75 4253.29,3291.79" />
    </edge>
    <edge id=":120_0" function="internal">
        <lane id=":120_0_0" index="0" speed="8.71" length="17.12" shape="578.08,3644.27 571.60,3644.51 566.96,3645.49 564.17,3647.20 563.23,3649.64" />
    </edge>
    <edge id=":120_1" function="internal">
        <lane id=":120_1_0" index="0" speed="20.12" length="49.37" shape="578.08,3644.27 528.87,3640.63" />
        <lane id=":120_1_1" index="1" speed="20.12" length="49.37" shape="578.13,3641.07 528.88,3637.43" />
    </edge>
    <edge id=":120_3" function="internal">
        <lane id=":120_3_0" index="0" speed="14.05" length="29.05" shape="578.19,3637.87 564.69,3636.10 555.03,3631.30 552.26,3627.57" />
        <lane id=":120_3_1" index="1" speed="13.26" length="23.52" shape="578.24,3634.67 566.11,3633.12 557.44,3628.92 556.43,3627.60" />
    </edge>
    <edge id=":120_23" function="internal">
        <lane id=":120_23_0" index="0" speed="14.05" length="16.16" shape="552.26,3627.57 549.21,3623.47 547.23,3612.60" />
    </edge>
    <edge id=":120_24" function="internal">
        <lane id=":120_24_0" index="0" speed="13.26" length="16.61" shape="556.43,3627.60 552.21,3622.08 550.43,3612.58" />
    </edge>
    <edge id=":120_5" function="internal">
        <lane id=":120_5_0" index="0" speed="7.52" length="12.21" shape="572.83,3612.47 573.20,3616.55 574.26,3619.47 576.01,3621.25 578.45,3621.87" />
        <lane id=":120_5_1" index="1" speed="8.84" length="17.25" shape="569.63,3612.48 570.20,3617.94 571.85,3621.85 574.58,3624.23 578.39,3625.07" />
    </edge>
    <edge id=":120_7" function="internal">
        <lane id=":120_7_0" index="0" speed="20.12" length="37.29" shape="566.43,3612.50 565.99,3623.55 564.91,3631.07 563.79,3638.60 563.23,3649.64" />
        <lane id=":120_7_1" index="1" speed="20.12" length="37.29" shape="563.23,3612.52 562.79,3623.55 561.71,3631.07 560.59,3638.59 560.03,3649.62" />
        <lane id=":120_7_2" index="2" speed="20.12" length="37.29" shape="560.03,3612.53 559.59,3623.56 558.51,3631.07 557.39,3638.58 556.83,3649.60" />
    </edge>
    <edge id=":120_10" function="internal">
        <lane id=":120_10_0" index="0" speed="13.53" length="22.15" shape="556.83,3612.55 555.13,3623.44 549.91,3631.22 548.36,3632.04" />
        <lane id=":120_10_1" index="1" speed="12.70" length="15.94" shape="553.63,3612.56 552.13,3622.05 548.55,3627.28" />
    </edge>
    <edge id=":120_25" function="internal">
        <lane id=":120_25_0" index="0" speed="13.53" length="20.54" shape="548.36,3632.04 541.15,3635.88 528.88,3637.43" />
    </edge>
    <edge id=":120_26" function="internal">
        <lane id=":120_26_0" index="0" speed="12.70" length="21.57" shape="548.55,3627.28 547.50,3628.82 539.75,3632.88 528.88,3634.23" />
    </edge>
    <edge id=":120_12" function="internal">
        <lane id=":120_12_0" index="0" speed="8.08" length="14.53" shape="528.88,3618.23 534.12,3617.88 537.86,3616.83 540.10,3615.08 540.83,3612.63" />
    </edge>
    <edge id=":120_13" function="internal">
        <lane id=":120_13_0" index="0" speed="20.12" length="49.54" shape="528.88,3621.43 578.45,3621.87" />
        <lane id=":120_13_1" index="1" speed="20.12" length="49.54" shape="528.88,3624.63 578.39,3625.07" />
    </edge>
    <edge id=":120_15" function="internal">
        <lane id=":120_15_0" index="0" speed="13.14" length="25.95" shape="528.88,3627.83 541.16,3629.20 549.91,3633.28 552.31,3636.41" />
        <lane id=":120_15_1" index="1" speed="12.30" length="19.95" shape="528.88,3631.03 539.75,3632.20 547.50,3635.68 547.82,3636.08" />
    </edge>
    <edge id=":120_27" function="internal">
        <lane id=":120_27_0" index="0" speed="13.14" length="14.30" shape="552.31,3636.41 555.13,3640.08 556.83,3649.60" />
    </edge>
    <edge id=":120_28" function="internal">
        <lane id=":120_28_0" index="0" speed="12.30" length="15.14" shape="547.82,3636.08 552.12,3641.47 553.63,3649.58" />
    </edge>
    <edge id=":120_17" function="internal">
        <lane id=":120_17_0" index="0" speed="7.31" length="11.74" shape="534.43,3649.46 534.10,3645.60 533.07,3642.84 531.32,3641.19 528.87,3640.63" />
    </edge>
    <edge id=":120_18" function="internal">
        <lane id=":120_18_0" index="0" speed="20.12" length="37.03" shape="537.63,3649.48 540.83,3612.63" />
        <lane id=":120_18_1" index="1" speed="20.12" length="37.03" shape="540.83,3649.50 544.03,3612.61" />
        <lane id=":120_18_2" index="2" speed="20.12" length="37.03" shape="544.03,3649.52 547.23,3612.60" />
    </edge>
    <edge id=":120_21" function="internal">