<?xml version="1.0" ?>
<additional>
    <inductionLoop id="338_2_0_detector" lane="338_2_0" pos="-8" friendlyPos="true" file="output_loop_detector_202504061458.xml"/>
    <inductionLoop id="338_2_1_detector" lane="338_2_1" pos="-8" friendlyPos="true" file="output_loop_detector_202504061458.xml"/>
    <inductionLoop id="338_2_2_detector" lane="338_2_2" pos="-8" friendlyPos="true" file="output_loop_detector_202504061458.xml"/>
    <inductionLoop id="338_2_3_detector" lane="338_2_3" pos="-8" friendlyPos="true" file="output_loop_detector_202504061458.xml"/>
    <inductionLoop id="262_2_0_detector" lane="262_2_0" pos="-8" friendlyPos="true" file="output_loop_detector_202504061458.xml"/>
    <inductionLoop id="262_2_1_detector" lane="262_2_1" pos="-8" friendlyPos="true" file="output_loop_detector_202504061458.xml"/>
    <inductionLoop id="262_2_2_detector" lane="262_2_2" pos="-8" friendlyPos="true" file="output_loop_detector_202504061458.xml"/>
    <inductionLoop id="117_2_0_detector" lane="117_2_0" pos="-8" friendlyPos="true" file="output_loop_detector_202504061458.xml"/>
    <inductionLoop id="117_2_1_detector" lane="117_2_1" pos="-8" friendlyPos="true" file="output_loop_detector_202504061458.xml"/>
    <inductionLoop id="117_2_2_detector" lane="117_2_2" pos="-8" friendlyPos="true" file="output_loop_detector_202504061458.xml"/>
    <inductionLoop id="375_4_0_detector" lane="375_4_0" pos="-8" friendlyPos="true" file="output_loop_detector_202504061458.xml"/>
    <inductionLoop id="375_4_1_detector" lane="375_4_1" pos="-8" friendlyPos="true" file="output_loop_detector_202504061458.xml"/>
    <inductionLoop id="375_4_2_detector" lane="375_4_2" pos="-8" friendlyPos="true" file="output_loop_detector_202504061458.xml"/>
    <inductionLoop id="80_4_0_detector" lane="80_4_0" pos="-8" friendlyPos="true" file="output_loop_detector_202504061458.xml"/>
    <inductionLoop id="80_4_1_detector" lane="80_4_1" pos="-8" friendlyPos="true" file="output_loop_detector_202504061458.xml"/>
    <inductionLoop id="80_4_2_detector" lane="80_4_2" pos="-8" friendlyPos="true" file="output_loop_detector_202504061458.xml"/>
    <inductionLoop id="80_4_3_detector" lane="80_4_3" pos="-8" friendlyPos="true" file="output_loop_detector_202504061458.xml"/>
    <inductionLoop id="80_4_4_detector" lane="80_4_4" pos="-8" friendlyPos="true" file="output_loop_detector_202504061458.xml"/>
    <inductionLoop id="612_4_0_detector" lane="612_4_0" pos="-8" friendlyPos="true" file="output_loop_detector_202504061458.xml"/>
    <inductionLoop id="612_4_1_detector" lane="612_4_1" pos="-8" friendlyPos="true" file="output_loop_detector_202504061458.xml"/>
    <inductionLoop id="612_4_2_detector" lane="612_4_2" pos="-8" friendlyPos="true" file="output_loop_detector_202504061458.xml"/>
    <inductionLoop id="949_8_0_detector" lane="949_8_0" pos="-8" friendlyPos="true" file="output_loop_detector_202504061458.xml"/>
    <inductionLoop id="949_8_1_detector" lane="949_8_1" pos="-8" friendlyPos="true" file="output_loop_detector_202504061458.xml"/>
    <inductionLoop id="949_8_2_detector" lane="949_8_2" pos="-8" friendlyPos="true" file="output_loop_detector_202504061458.xml"/>
    <inductionLoop id="949_8_3_detector" lane="949_8_3" pos="-8" friendlyPos="true" file="output_loop_detector_202504061458.xml"/>
    <inductionLoop id="10_8_0_detector" lane="10_8_0" pos="-8" friendlyPos="true" file="output_loop_detector_202504061458.xml"/>
    <inductionLoop id="10_8_1_detector" lane="10_8_1" pos="-8" friendlyPos="true" file="output_loop_detector_202504061458.xml"/>
    <inductionLoop id="194_8_0_detector" lane="194_8_0" pos="-8" friendlyPos="true" file="output_loop_detector_202504061458.xml"/>
    <inductionLoop id="194_8_1_detector" lane="194_8_1" pos="-8" friendlyPos="true" file="output_loop_detector_202504061458.xml"/>
    <inductionLoop id="171_9_0_detector" lane="171_9_0" pos="-8" friendlyPos="true" file="output_loop_detector_202504061458.xml"/>
    <inductionLoop id="171_9_1_detector" lane="171_9_1" pos="-8" friendlyPos="true" file="output_loop_detector_202504061458.xml"/>
    <inductionLoop id="171_9_2_detector" lane="171_9_2" pos="-8" friendlyPos="true" file="output_loop_detector_202504061458.xml"/>
    <inductionLoop id="99_9_0_detector" lane="99_9_0" pos="-8" friendlyPos="true" file="output_loop_detector_202504061458.xml"/>
    <inductionLoop id="99_9_1_detector" lane="99_9_1" pos="-8" friendlyPos="true" file="output_loop_detector_202504061458.xml"/>
    <inductionLoop id="99_9_2_detector" lane="99_9_2" pos="-8" friendlyPos="true" file="output_loop_detector_202504061458.xml"/>
    <inductionLoop id="99_9_3_detector" lane="99_9_3" pos="-8" friendlyPos="true" file="output_loop_detector_202504061458.xml"/>
    <inductionLoop id="21_9_0_detector" lane="21_9_0" pos="-8" friendlyPos="true" file="output_loop_detector_202504061458.xml"/>
    <inductionLoop id="21_9_1_detector" lane="21_9_1" pos="-8" friendlyPos="true" file="output_loop_detector_202504061458.xml"/>
    <inductionLoop id="21_9_2_detector" lane="21_9_2" pos="-8" friendlyPos="true" file="output_loop_detector_202504061458.xml"/>
    <inductionLoop id="8_10_0_detector" lane="8_10_0" pos="-8" friendlyPos="true" file="output_loop_detector_202504061458.xml"/>
    <inductionLoop id="8_10_1_detector" lane="8_10_1" pos="-8" friendlyPos="true" file="output_loop_detector_202504061458.xml"/>
    <inductionLoop id="8_10_2_detector" lane="8_10_2" pos="-8" friendlyPos="true" file="output_loop_detector_202504061458.xml"/>
    <inductionLoop id="8_10_3_detector" lane="8_10_3" pos="-8" friendlyPos="true" file="output_loop_detector_202504061458.xml"/>
    <inductionLoop id="127_10_0_detector" lane="127_10_0" pos="-8" friendlyPos="true" file="output_loop_detector_202504061458.xml"/>
    <inductionLoop id="127_10_1_detector" lane="127_10_1" pos="-8" friendlyPos="true" file="output_loop_detector_202504061458.xml"/>
    <inductionLoop id="127_10_2_detector" lane="127_10_2" pos="-8" friendlyPos="true" file="output_loop_detector_202504061458.xml"/>
    <inductionLoop id="126_10_0_detector" lane="126_10_0" pos="-8" friendlyPos="true" file="output_loop_detector_202504061458.xml"/>
    <inductionLoop id="126_10_1_detector" lane="126_10_1" pos="-8" friendlyPos="true" file="output_loop_detector_202504061458.xml"/>
    <inductionLoop id="126_10_2_detector" lane="126_10_2" pos="-8" friendlyPos="true" file="output_loop_detector_202504061458.xml"/>
    <inductionLoop id="126_10_3_detector" lane="126_10_3" pos="-8" friendlyPos="true" file="output_loop_detector_202504061458.xml"/>
    <inductionLoop id="236_10_0_detector" lane="236_10_0" pos="-8" friendlyPos="true" file="output_loop_detector_202504061458.xml"/>
    <inductionLoop id="236_10_1_detector" lane="236_10_1" pos="-8" friendlyPos="true" file="output_loop_detector_202504061458.xml"/>
    <inductionLoop id="236_10_2_detector" lane="236_10_2" pos="-8" friendlyPos="true" file="output_loop_detector_202504061458.xml"/>
    <inductionLoop id="236_10_3_detector" lane="236_10_3" pos="-8" friendlyPos="true" file="output_loop_detector_202504061458.xml"/>
    <inductionLoop id="14_11_0_detector" lane="14_11_0" pos="-8" friendlyPos="true" file="output_loop_detector_202504061458.xml"/>
    <inductionLoop id="14_11_1_detector" lane="14_11_1" pos="-8" friendlyPos="true" file="output_loop_detector_202504061458.xml"/>
    <inductionLoop id="14_11_2_detector" lane="14_11_2" pos="-8" friendlyPos="true" file="output_loop_detector_202504061458.xml"/>
    <inductionLoop id="14_11_3_detector" lane="14_11_3" pos="-8" friendlyPos="true" file="output_loop_detector_202504061458.xml"/>
    <inductionLoop id="212_11_0_detector" lane="212_11_0" pos="-8" friendlyPos="true" file="output_loop_detector_202504061458.xml"/>
    <inductionLoop id="212_11_1_detector" lane="212_11_1" pos="-8" friendlyPos="true" file="output_loop_detector_202504061458.xml"/>
    <inductionLoop id="212_11_2_detector" lane="212_11_2" pos="-8" friendlyPos="true" file="output_loop_detector_202504061458.xml"/>
    <inductionLoop id="212_11_3_detector" lane="212_11_3" pos="-8" friendlyPos="true" file="output_loop_detector_202504061458.xml"/>
    <inductionLoop id="42_11_0_detector" lane="42_11_0" pos="-8" friendlyPos="true" file="output_loop_detector_202504061458.xml"/>
    <inductionLoop id="42_11_1_detector" lane="42_11_1" pos="-8" friendlyPos="true" file="output_loop_detector_202504061458.xml"/>
    <inductionLoop id="42_11_2_detector" lane="42_11_2" pos="-8" friendlyPos="true" file="output_loop_detector_202504061458.xml"/>
    <inductionLoop id="29_11_0_detector" lane="29_11_0" pos="-8" friendlyPos="true" file="output_loop_detector_202504061458.xml"/>
    <inductionLoop id="29_11_1_detector" lane="29_11_1" pos="-8" friendlyPos="true" file="output_loop_detector_202504061458.xml"/>
    <inductionLoop id="29_11_2_detector" lane="29_11_2" pos="-8" friendlyPos="true" file="output_loop_detector_202504061458.xml"/>
    <inductionLoop id="29_11_3_detector" lane="29_11_3" pos="-8" friendlyPos="true" file="output_loop_detector_202504061458.xml"/>
    <inductionLoop id="29_11_4_detector" lane="29_11_4" pos="-8" friendlyPos="true" file="output_loop_detector_202504061458.xml"/>
    <inductionLoop id="447_14_0_detector" lane="447_14_0" pos="-8" friendlyPos="true" file="output_loop_detector_202504061458.xml"/>
    <inductionLoop id="447_14_1_detector" lane="447_14_1" pos="-8" friendlyPos="true" file="output_loop_detector_202504061458.xml"/>
    <inductionLoop id="447_14_2_detector" lane="447_14_2" pos="-8" friendlyPos="true" file="output_loop_detector_202504061458.xml"/>
    <inductionLoop id="447_14_3_detector" lane="447_14_3" pos="-8" friendlyPos="true" file="output_loop_detector_202504061458.xml"/>
    <inductionLoop id="11_14_0_detector" lane="11_14_0" pos="-8" friendlyPos="true" file="output_loop_detector_202504061458.xml"/>
    <inductionLoop id="11_14_1_detector" lane="11_14_1" pos="-8" friendlyPos="true" file="output_loop_detector_202504061458.xml"/>
    <inductionLoop id="11_14_2_detector" lane="11_14_2" pos="-8" friendlyPos="true" file="output_loop_detector_202504061458.xml"/>
    <inductionLoop id="16_14_0_detector" lane="16_14_0" pos="-8" friendlyPos="true" file="output_loop_detector_202504061458.xml"/>
    <inductionLoop id="16_14_1_detector" lane="16_14_1" pos="-8" friendlyPos="true" file="output_loop_detector_202504061458.xml"/>
    <inductionLoop id="175_14_0_detector" lane="175_14_0" pos="-8" friendlyPos="true" file="output_loop_detector_202504061458.xml"/>
    <inductionLoop id="175_14_1_detector" lane="175_14_1" pos="-8" friendlyPos="true" file="output_loop_detector_202504061458.xml"/>
    <inductionLoop id="175_14_2_detector" lane="175_14_2" pos="-8" friendlyPos="true" file="output_loop_detector_202504061458.xml"/>
    <inductionLoop id="24_19_0_detector" lane="24_19_0" pos="-8" friendlyPos="true" file="output_loop_detector_202504061458.xml"/>
    <inductionLoop id="24_19_1_detector" lane="24_19_1" pos="-8" friendlyPos="true" file="output_loop_detector_202504061458.xml"/>
    <inductionLoop id="24_19_2_detector" lane="24_19_2" pos="-8" friendlyPos="true" file="output_loop_detector_202504061458.xml"/>
    <inductionLoop id="373_19_0_detector" lane="373_19_0" pos="-8" friendlyPos="true" file="output_loop_detector_202504061458.xml"/>
    <inductionLoop id="373_19_1_detector" lane="373_19_1" pos="-8" friendlyPos="true" file="output_loop_detector_202504061458.xml"/>
    <inductionLoop id="174_19_0_detector" lane="174_19_0" pos="-8" friendlyPos="true" file="output_loop_detector_202504061458.xml"/>
    <inductionLoop id="174_19_1_detector" lane="174_19_1" pos="-8" friendlyPos="true" file="output_loop_detector_202504061458.xml"/>
    <inductionLoop id="174_19_2_detector" lane="174_19_2" pos="-8" friendlyPos="true" file="output_loop_detector_202504061458.xml"/>
    <inductionLoop id="357_24_0_detector" lane="357_24_0" pos="-8" friendlyPos="true" file="output_loop_detector_202504061458.xml"/>
    <inductionLoop id="357_24_1_detector" lane="357_24_1" pos="-8" friendlyPos="true" file="output_loop_detector_202504061458.xml"/>
    <inductionLoop id="357_24_2_detector" lane="357_24_2" pos="-8" friendlyPos="true" file="output_loop_detector_202504061458.xml"/>
    <inductionLoop id="19_24_0_detector" lane="19_24_0" pos="-8" friendlyPos="true" file="output_loop_detector_202504061458.xml"/>
    <inductionLoop id="19_24_1_detector" lane="19_24_1" pos="-8" friendlyPos="true" file="output_loop_detector_202504061458.xml"/>
    <inductionLoop id="19_24_2_detector" lane="19_24_2" pos="-8" friendlyPos="true" file="output_loop_detector_202504061458.xml"/>
    <inductionLoop id="305_24_0_detector" lane="305_24_0" pos="-8" friendlyPos="true" file="output_loop_detector_202504061458.xml"/>
    <inductionLoop id="305_24_1_detector" lane="305_24_1" pos="-8" friendlyPos="true" file="output_loop_detector_202504061458.xml"/>
    <inductionLoop id="305_24_2_detector" lane="305_24_2" pos="-8" friendlyPos="true" file="output_loop_detector_202504061458.xml"/>
    <inductionLoop id="169_29_0_detector" lane="169_29_0" pos="-8" friendlyPos="true" file="output_loop_detector_202504061458.xml"/>
    <inductionLoop id="169_29_1_detector" lane="169_29_1" pos="-8" friendlyPos="true" file="output_loop_detector_202504061458.xml"/>
    <inductionLoop id="169_29_2_detector" lane="169_29_2" pos="-8" friendlyPos="true" file="output_loop_detector_202504061458.xml"/>
    <inductionLoop id="299_29_0_detector" lane="299_29_0" pos="-8" friendlyPos="true" file="output_loop_detector_202504061458.xml"/>
    <inductionLoop id="299_29_1_detector" lane="299_29_1" pos="-8" friendlyPos="true" file="output_loop_detector_202504061458.xml"/>
    <inductionLoop id="11_29_0_detector" lane="11_29_0" pos="-8" friendlyPos="true" file="output_loop_detector_202504061458.xml"/>
    <inductionLoop id="11_29_1_detector" lane="11_29_1" pos="-8" friendlyPos="true" file="output_loop_detector_202504061458.xml"/>
    <inductionLoop id="11_29_2_detector" lane="11_29_2" pos="-8" friendlyPos="true" file="output_loop_detector_202504061458.xml"/>
    <inductionLoop id="30_29_0_detector" lane="30_29_0" pos="-8" friendlyPos="true" file="output_loop_detector_202504061458.xml"/>
    <inductionLoop id="30_29_1_detector" lane="30_29_1" pos="-8" friendlyPos="true" file="output_loop_detector_202504061458.xml"/>
    <inductionLoop id="30_29_2_detector" lane="30_29_2" pos="-8" friendlyPos="true" file="output_loop_detector_202504061458.xml"/>
    <inductionLoop id="30_29_3_detector" lane="30_29_3" pos="-8" friendlyPos="true" file="output_loop_detector_202504061458.xml"/>
    <inductionLoop id="31_30_0_detector" lane="31_30_0" pos="-8" friendlyPos="true" file="output_loop_detector_202504061458.xml"/>
    <inductionLoop id="31_30_1_detector" lane="31_30_1" pos="-8" friendlyPos="true" file="output_loop_detector_202504061458.xml"/>
    <inductionLoop id="31_30_2_detector" lane="31_30_2" pos="-8" friendlyPos="true" file="output_loop_detector_202504061458.xml"/>
    <inductionLoop id="31_30_3_detector" lane="31_30_3" pos="-8" friendlyPos="true" file="output_loop_detector_202504061458.xml"/>
    <inductionLoop id="27_30_0_detector" lane="27_30_0" pos="-8" friendlyPos="true" file="output_loop_detector_202504061458.xml"/>
    <inductionLoop id="27_30_1_detector" lane="27_30_1" pos="-8" friendlyPos="true" file="output_loop_detector_202504061458.xml"/>
    <inductionLoop id="27_30_2_detector" lane="27_30_2" pos="-8" friendlyPos="true" file="output_loop_detector_202504061458.xml"/>
    <inductionLoop id="29_30_0_detector" lane="29_30_0" pos="-8" friendlyPos="true" file="output_loop_detector_202504061458.xml"/>
    <inductionLoop id="29_30_1_detector" lane="29_30_1" pos="-8" friendlyPos="true" file="output_loop_detector_202504061458.xml"/>
    <inductionLoop id="29_30_2_detector" lane="29_30_2" pos="-8" friendlyPos="true" file="output_loop_detector_202504061458.xml"/>
    <inductionLoop id="29_30_3_detector" lane="29_30_3" pos="-8" friendlyPos="true" file="output_loop_detector_202504061458.xml"/>
    <inductionLoop id="51_30_0_detector" lane="51_30_0" pos="-8" friendlyPos="true" file="output_loop_detector_202504061458.xml"/>
    <inductionLoop id="51_30_1_detector" lane="51_30_1" pos="-8" friendlyPos="true" file="output_loop_detector_202504061458.xml"/>
    <inductionLoop id="51_30_2_detector" lane="51_30_2" pos="-8" friendlyPos="true" file="output_loop_detector_202504061458.xml"/>
    <inductionLoop id="51_30_3_detector" lane="51_30_3" pos="-8" friendlyPos="true" file="output_loop_detector_202504061458.xml"/>
    <inductionLoop id="33_31_0_detector" lane="33_31_0" pos="-8" friendlyPos="true" file="output_loop_detector_202504061458.xml"/>
    <inductionLoop id="33_31_1_detector" lane="33_31_1" pos="-8" friendlyPos="true" file="output_loop_detector_202504061458.xml"/>
    <inductionLoop id="33_31_2_detector" lane="33_31_2" pos="-8" friendlyPos="true" file="output_loop_detector_202504061458.xml"/>
    <inductionLoop id="30_31_0_detector" lane="30_31_0" pos="-8" friendlyPos="true" file="output_loop_detector_202504061458.xml"/>
    <inductionLoop id="30_31_1_detector" lane="30_31_1" pos="-8" friendlyPos="true" file="output_loop_detector_202504061458.xml"/>
    <inductionLoop id="30_31_2_detector" lane="30_31_2" pos="-8" friendlyPos="true" file="output_loop_detector_202504061458.xml"/>
    <inductionLoop id="320_31_0_detector" lane="320_31_0" pos="-8" friendlyPos="true" file="output_loop_detector_202504061458.xml"/>
    <inductionLoop id="320_31_1_detector" lane="320_31_1" pos="-8" friendlyPos="true" file="output_loop_detector_202504061458.xml"/>
    <inductionLoop id="32_33_0_detector" lane="32_33_0" pos="-8" friendlyPos="true" file="output_loop_detector_202504061458.xml"/>
    <inductionLoop id="32_33_1_detector" lane="32_33_1" pos="-8" friendlyPos="true" file="output_loop_detector_202504061458.xml"/>
    <inductionLoop id="32_33_2_detector" lane="32_33_2" pos="-8" friendlyPos="true" file="output_loop_detector_202504061458.xml"/>
    <inductionLoop id="31_33_0_detector" lane="31_33_0" pos="-8" friendlyPos="true" file="output_loop_detector_202504061458.xml"/>
    <inductionLoop id="31_33_1_detector" lane="31_33_1" pos="-8" friendlyPos="true" file="output_loop_detector_202504061458.xml"/>
    <inductionLoop id="31_33_2_detector" lane="31_33_2" pos="-8" friendlyPos="true" file="output_loop_detector_202504061458.xml"/>
    <inductionLoop id="179_33_0_detector" lane="179_33_0" pos="-8" friendlyPos="true" file="output_loop_detector_202504061458.xml"/>
    <inductionLoop id="179_33_1_detector" lane="179_33_1" pos="-8" friendlyPos="true" file="output_loop_detector_202504061458.xml"/>
    <inductionLoop id="34_33_0_detector" lane="34_33_0" pos="-8" friendlyPos="true" file="output_loop_detector_202504061458.xml"/>
    <inductionLoop id="34_33_1_detector" lane="34_33_1" pos="-8" friendlyPos="true" file="output_loop_detector_202504061458.xml"/>
    <inductionLoop id="465_35_0_detector" lane="465_35_0" pos="-8" friendlyPos="true" file="output_loop_detector_202504061458.xml"/>
    <inductionLoop id="465_35_1_detector" lane="465_35_1" pos="-8" friendlyPos="true" file="output_loop_detector_202504061458.xml"/>
    <inductionLoop id="465_35_2_detector" lane="465_35_2" pos="-8" friendlyPos="true" file="output_loop_detector_202504061458.xml"/>
    <inductionLoop id="465_35_3_detector" lane="465_35_3" pos="-8" friendlyPos="true" file="output_loop_detector_202504061458.xml"/>
    <inductionLoop id="116_35_0_detector" lane="116_35_0" pos="-8" friendlyPos="true" file="output_loop_detector_202504061458.xml"/>
    <inductionLoop id="116_35_1_detector" lane="116_35_1" pos="-8" friendlyPos="true" file="output_loop_detector_202504061458.xml"/>
    <inductionLoop id="116_35_2_detector" lane="116_35_2" pos="-8" friendlyPos="true" file="output_loop_detector_202504061458.xml"/>
    <inductionLoop id="116_35_3_detector" lane="116_35_3" pos="-8" friendlyPos="true" file="output_loop_detector_202504061458.xml"/>
    <inductionLoop id="116_35_4_detector" lane="116_35_4" pos="-8" friendlyPos="true" file="output_loop_detector_202504061458.xml"/>
    <inductionLoop id="39_35_0_detector" lane="39_35_0" pos="-8" friendlyPos="true" file="output_loop_detector_202504061458.xml"/>
    <inductionLoop id="39_35_1_detector" lane="39_35_1" pos="-8" friendlyPos="true" file="output_loop_detector_202504061458.xml"/>
    <inductionLoop id="39_35_2_detector" lane="39_35_2" pos="-8" friendlyPos="true" file="output_loop_detector_202504061458.xml"/>
    <inductionLoop id="36_35_0_detector" lane="36_35_0" pos="-8" friendlyPos="true" file="output_loop_detector_202504061458.xml"/>
    <inductionLoop id="36_35_1_detector" lane="36_35_1" pos="-8" friendlyPos="true" file="output_loop_detector_202504061458.xml"/>
    <inductionLoop id="36_35_2_detector" lane="36_35_2" pos="-8" friendlyPos="true" file="output_loop_detector_202504061458.xml"/>
    <inductionLoop id="36_35_3_detector" lane="36_35_3" pos="-8" friendlyPos="true" file="output_loop_detector_202504061458.xml"/>
    <inductionLoop id="204_37_0_detector" lane="204_37_0" pos="-8" friendlyPos="true" file="output_loop_detector_202504061458.xml"/>
    <inductionLoop id="204_37_1_detector" lane="204_37_1" pos="-8" friendlyPos="true" file="output_loop_detector_202504061458.xml"/>
    <inductionLoop id="204_37_2_detector" lane="204_37_2" pos="-8" friendlyPos="true" file="output_loop_detector_202504061458.xml"/>
    <inductionLoop id="204_37_3_detector" lane="204_37_3" pos="-8" friendlyPos="true" file="output_loop_detector_202504061458.xml"/>
    <inductionLoop id="456_37_0_detector" lane="456_37_0" pos="-8" friendlyPos="true" file="output_loop_detector_202504061458.xml"/>
    <inductionLoop id="456_37_1_detector" lane="456_37_1" pos="-8" friendlyPos="true" file="output_loop_detector_202504061458.xml"/>
    <inductionLoop id="456_37_2_detector" lane="456_37_2" pos="-8" friendlyPos="true" file="output_loop_detector_202504061458.xml"/>
    <inductionLoop id="456_37_3_detector" lane="456_37_3" pos="-8" friendlyPos="true" file="output_loop_detector_202504061458.xml"/>
    <inductionLoop id="456_37_4_detector" lane="456_37_4" pos="-8" friendlyPos="true" file="output_loop_detector_202504061458.xml"/>
    <inductionLoop id="623_37_0_detector" lane="623_37_0" pos="-8" friendlyPos="true" file="output_loop_detector_202504061458.xml"/>
    <inductionLoop id="623_37_1_detector" lane="623_37_1" pos="-8" friendlyPos="true" file="output_loop_detector_202504061458.xml"/>
    <inductionLoop id="623_37_2_detector" lane="623_37_2" pos="-8" friendlyPos="true" file="output_loop_detector_202504061458.xml"/>
    <inductionLoop id="41_39_0_detector" lane="41_39_0" pos="-8" friendlyPos="true" file="output_loop_detector_202504061458.xml"/>
    <inductionLoop id="41_39_1_detector" lane="41_39_1" pos="-8" friendlyPos="true" file="output_loop_detector_202504061458.xml"/>
    <inductionLoop id="40_39_0_detector" lane="40_39_0" pos="-8" friendlyPos="true" file="output_loop_detector_202504061458.xml"/>
    <inductionLoop id="40_39_1_detector" lane="40_39_1" pos="-8" friendlyPos="true" file="output_loop_detector_202504061458.xml"/>
    <inductionLoop id="51_39_0_detector" lane="51_39_0" pos="-8" friendlyPos="true" file="output_loop_detector_202504061458.xml"/>
    <inductionLoop id="51_39_1_detector" lane="51_39_1" pos="-8" friendlyPos="true" file="output_loop_detector_202504061458.xml"/>
    <inductionLoop id="51_39_2_detector" lane="51_39_2" pos="-8" friendlyPos="true" file="output_loop_detector_202504061458.xml"/>
    <inductionLoop id="35_39_0_detector" lane="35_39_0" pos="-8" friendlyPos="true" file="output_loop_detector_202504061458.xml"/>
    <inductionLoop id="35_39_1_detector" lane="35_39_1" pos="-8" friendlyPos="true" file="output_loop_detector_202504061458.xml"/>
    <inductionLoop id="35_39_2_detector" lane="35_39_2" pos="-8" friendlyPos="true" file="output_loop_detector_202504061458.xml"/>
    <inductionLoop id="35_39_3_detector" lane="35_39_3" pos="-8" friendlyPos="true" file="output_loop_detector_202504061458.xml"/>
    <inductionLoop id="43_42_0_detector" lane="43_42_0" pos="-8" friendlyPos="true" file="output_loop_detector_202504061458.xml"/>
    <inductionLoop id="43_42_1_detector" lane="43_42_1" pos="-8" friendlyPos="true" file="output_loop_detector_202504061458.xml"/>
    <inductionLoop id="236_42_0_detector" lane="236_42_0" pos="-8" friendlyPos="true" file="output_loop_detector_202504061458.xml"/>
    <inductionLoop id="236_42_1_detector" lane="236_42_1" pos="-8" friendlyPos="true" file="output_loop_detector_202504061458.xml"/>
    <inductionLoop id="236_42_2_detector" lane="236_42_2" pos="-8" friendlyPos="true" file="output_loop_detector_202504061458.xml"/>
    <inductionLoop id="11_42_0_detector" lane="11_42_0" pos="-8" friendlyPos="true" file="output_loop_detector_202504061458.xml"/>
    <inductionLoop id="11_42_1_detector" lane="11_42_1" pos="-8" friendlyPos="true" file="output_loop_detector_202504061458.xml"/>
    <inductionLoop id="11_42_2_detector" lane="11_42_2" pos="-8" friendlyPos="true" file="output_loop_detector_202504061458.xml"/>
    <inductionLoop id="11_42_3_detector" lane="11_42_3" pos="-8" friendlyPos="true" file="output_loop_detector_202504061458.xml"/>
    <inductionLoop id="333_47_0_detector" lane="333_47_0" pos="-8" friendlyPos="true" file="output_loop_detector_202504061458.xml"/>
    <inductionLoop id="333_47_1_detector" lane="333_47_1" pos="-8" friendlyPos="true" file="output_loop_detector_202504061458.xml"/>
    <inductionLoop id="333_47_2_detector" lane="333_47_2" pos="-8" friendlyPos="true" file="output_loop_detector_202504061458.xml"/>
    <inductionLoop id="334_47_0_detector" lane="334_47_0" pos="-8" friendlyPos="true" file="output_loop_detector_202504061458.xml"/>
    <inductionLoop id="334_47_1_detector" lane="334_47_1" pos="-8" friendlyPos="true" file="output_loop_detector_202504061458.xml"/>
    <inductionLoop id="949_47_0_detector" lane="949_47_0" pos="-8" friendlyPos="true" file="output_loop_detector_202504061458.xml"/>
    <inductionLoop id="949_47_1_detector" lane="949_47_1" pos="-8" friendlyPos="true" file="output_loop_detector_202504061458.xml"/>
    <inductionLoop id="447_47_0_detector" lane="447_47_0" pos="-8" friendlyPos="true" file="output_loop_detector_202504061458.xml"/>
    <inductionLoop id="447_47_1_detector" lane="447_47_1" pos="-8" friendlyPos="true" file="output_loop_detector_202504061458.xml"/>
    <inductionLoop id="447_47_2_detector" lane="447_47_2" pos="-8" friendlyPos="true" file="output_loop_detector_202504061458.xml"/>
    <inductionLoop id="62_49_0_detector" lane="62_49_0" pos="-8" friendlyPos="true" file="output_loop_detector_202504061458.xml"/>
    <inductionLoop id="62_49_1_detector" lane="62_49_1" pos="-8" friendlyPos="true" file="output_loop_detector_202504061458.xml"/>
    <inductionLoop id="62_49_2_detector" lane="62_49_2" pos="-8" friendlyPos="true" file="output_loop_detector_202504061458.xml"/>
    <inductionLoop id="20_49_0_detector" lane="20_49_0" pos="-8" friendlyPos="true" file="output_loop_detector_202504061458.xml"/>
    <inductionLoop id="20_49_1_detector" lane="20_49_1" pos="-8" friendlyPos="true" file="output_loop_detector_202504061458.xml"/>
    <inductionLoop id="20_49_2_detector" lane="20_49_2" pos="-8" friendlyPos="true" file="output_loop_detector_202504061458.xml"/>
    <inductionLoop id="68_49_0_detector" lane="68_49_0" pos="-8" friendlyPos="true" file="output_loop_detector_202504061458.xml"/>
    <inductionLoop id="68_49_1_detector" lane="68_49_1" pos="-8" friendlyPos="true" file="output_loop_detector_202504061458.xml"/>
    <inductionLoop id="59_51_0_detector" lane="59_51_0" pos="-8" friendlyPos="true" file="output_loop_detector_202504061458.xml"/>
    <inductionLoop id="53_51_0_detector" lane="53_51_0" pos="-8" friendlyPos="true" file="output_loop_detector_202504061458.xml"/>
    <inductionLoop id="30_51_0_detector" lane="30_51_0" pos="-8" friendlyPos="true" file="output_loop_detector_202504061458.xml"/>
    <inductionLoop id="30_51_1_detector" lane="30_51_1" pos="-8" friendlyPos="true" file="output_loop_detector_202504061458.xml"/>
    <inductionLoop id="30_51_2_detector" lane="30_51_2" pos="-8" friendlyPos="true" file="output_loop_detector_202504061458.xml"/>
    <inductionLoop id="39_51_0_detector" lane="39_51_0" pos="-8" friendlyPos="true" file="output_loop_detector_202504061458.xml"/>
    <inductionLoop id="39_51_1_detector" lane="39_51_1" pos="-8" friendlyPos="true" file="output_loop_detector_202504061458.xml"/>
    <inductionLoop id="39_51_2_detector" lane="39_51_2" pos="-8" friendlyPos="true" file="output_loop_detector_202504061458.xml"/>
    <inductionLoop id="189_55_0_detector" lane="189_55_0" pos="-8" friendlyPos="true" file="output_loop_detector_202504061458.xml"/>
    <inductionLoop id="189_55_1_detector" lane="189_55_1" pos="-8" friendlyPos="true" file="output_loop_detector_202504061458.xml"/>
    <inductionLoop id="189_55_2_detector" lane="189_55_2" pos="-8" friendlyPos="true" file="output_loop_detector_202504061458.xml"/>
    <inductionLoop id="189_55_3_detector" lane="189_55_3" pos="-8" friendlyPos="true" file="output_loop_detector_202504061458.xml"/>
    <inductionLoop id="447_55_0_detector" lane="447_55_0" pos="-8" friendlyPos="true" file="output_loop_detector_202504061458.xml"/>
    <inductionLoop id="447_55_1_detector" lane="447_55_1" pos="-8" friendlyPos="true" file="output_loop_detector_202504061458.xml"/>
    <inductionLoop id="447_55_2_detector" lane="447_55_2" pos="-8" friendlyPos="true" file="output_loop_detector_202504061458.xml"/>
    <inductionLoop id="447_55_3_detector" lane="447_55_3" pos="-8" friendlyPos="true" file="output_loop_detector_202504061458.xml"/>
    <inductionLoop id="447_55_4_detector" lane="447_55_4" pos="-8" friendlyPos="true" file="output_loop_detector_202504061458.xml"/>