<?xml version="1.0" ?>
<nodes>
    <node id="1" x="-112.2647183892145" y="33.46192969796322"/>
    <node id="2" x="-112.11734002089004" y="33.46172599748789" type="traffic_light"/>
    <node id="3" x="-112.2774594776018" y="33.46191939333869"/>
    <node id="4" x="-112.18609534996173" y="33.46273197590082" type="traffic_light"/>
    <node id="5" x="-112.26522639848615" y="33.461816420773715"/>
    <node id="6" x="-112.1363183887714" y="33.43712893663115"/>
    <node id="7" x="-112.2775603695008" y="33.4615125437467"/>
    <node id="8" x="-112.16883905334848" y="33.473400240512646" type="traffic_light"/>
    <node id="9" x="-112.22008239068171" y="33.46234022225898" type="traffic_light"/>
    <node id="10" x="-112.16894813084333" y="33.48039136174416" type="traffic_light"/>
    <node id="11" x="-112.1514754069222" y="33.480353435969626" type="traffic_light"/>
    <node id="12" x="-112.23181050989768" y="33.46240689500882"/>
    <node id="13" x="-112.23293127845575" y="33.4619853950625"/>
    <node id="14" x="-112.15160371884586" y="33.473076430694945" type="traffic_light"/>
    <node id="15" x="-112.24338754671695" y="33.462280244644795"/>
    <node id="16" x="-112.1557222849377" y="33.47300926938048"/>
    <node id="17" x="-112.12583909595575" y="33.46849978681053"/>
    <node id="18" x="-112.24337722138455" y="33.46194223829433"/>
    <node id="19" x="-112.25447129295104" y="33.463315507715755" type="traffic_light"/>
    <node id="20" x="-112.11760227120729" y="33.44630909631892"/>
    <node id="21" x="-112.2242636155068" y="33.463023712879234"/>
    <node id="22" x="-112.22437211504032" y="33.46326820057555"/>
    <node id="23" x="-112.21568661816073" y="33.4632341733161"/>
    <node id="24" x="-112.25443533014231" y="33.46129843923733" type="traffic_light"/>
    <node id="25" x="-112.21826438448603" y="33.49490942575069"/>
    <node id="26" x="-112.20160887903127" y="33.49504828380748"/>
    <node id="27" x="-112.13422937578251" y="33.48236309778426"/>
    <node id="28" x="-112.17716508273332" y="33.492875014358596"/>
    <node id="29" x="-112.14281775663076" y="33.48033353322457" type="traffic_light"/>
    <node id="30" x="-112.13423552983282" y="33.480277290179785" type="traffic_light"/>
    <node id="31" x="-112.13430039775463" y="33.47658108710391" type="traffic_light"/>
    <node id="32" x="-112.13445299946136" y="33.468828669455384"/>
    <node id="33" x="-112.13428986113173" y="33.47299206810797" type="traffic_light"/>
    <node id="34" x="-112.13129929508932" y="33.47301442578173"/>
    <node id="35" x="-112.11708094774583" y="33.4802537085881" type="traffic_light"/>
    <node id="36" x="-112.11311614401951" y="33.480270125479876"/>
    <node id="37" x="-112.13450122441738" y="33.4639590204941" type="traffic_light"/>
    <node id="38" x="-112.18500579605906" y="33.495179378443524"/>
    <node id="39" x="-112.12534833350782" y="33.48026444253506" type="traffic_light"/>
    <node id="40" x="-112.12534842453901" y="33.481253758094034"/>
    <node id="41" x="-112.12536127891964" y="33.478395734088345"/>
    <node id="42" x="-112.16121854756628" y="33.4803751025236" type="traffic_light"/>
    <node id="43" x="-112.16123427245131" y="33.47904226896485"/>
    <node id="44" x="-112.16745791380033" y="33.495105275435996"/>
    <node id="45" x="-112.15462669080894" y="33.495123541171935"/>
    <node id="46" x="-112.1498772931421" y="33.4951111388021"/>
    <node id="47" x="-112.1599262090199" y="33.46645641787251" type="traffic_light"/>
    <node id="48" x="-112.11927847726284" y="33.494928525095006"/>
    <node id="49" x="-112.11754981219347" y="33.44259089692784" type="traffic_light"/>
    <node id="50" x="-112.11979537835393" y="33.44768862541057"/>
    <node id="51" x="-112.12990671120053" y="33.48027505657731" type="traffic_light"/>
    <node id="52" x="-112.1259444200192" y="33.439325836247924"/>
    <node id="53" x="-112.12990358372649" y="33.48132757871833"/>
    <node id="54" x="-112.09893873071027" y="33.45176548338318"/>
    <node id="55" x="-112.15172433673415" y="33.46297436603149" type="traffic_light"/>
    <node id="56" x="-112.13445111474977" y="33.442542998649685" type="traffic_light"/>
    <node id="57" x="-112.13030446082787" y="33.442543501474916"/>
    <node id="58" x="-112.15170105626106" y="33.43719982792693" type="traffic_light"/>
    <node id="59" x="-112.12990320132897" y="33.47867841121351"/>
    <node id="60" x="-112.11454045514233" y="33.447666633209316"/>
    <node id="61" x="-112.13449266271984" y="33.43712645445497" type="traffic_light"/>
    <node id="62" x="-112.11735313202186" y="33.43710840375942" type="traffic_light"/>
    <node id="63" x="-112.12584259548339" y="33.437165822786156" type="traffic_light"/>
    <node id="64" x="-112.12581952749757" y="33.43589619365264"/>
    <node id="65" x="-112.16894833420527" y="33.46413908564122" type="traffic_light"/>
    <node id="66" x="-112.10021826599022" y="33.4467531090313"/>
    <node id="67" x="-112.23925205994328" y="33.48731956207644"/>
    <node id="68" x="-112.12112282008975" y="33.442585343179516"/>
    <node id="69" x="-112.13449044481878" y="33.45916907100224" type="traffic_light"/>
    <node id="70" x="-112.17744742609156" y="33.46477831290881"/>
    <node id="71" x="-112.1366477720411" y="33.45916875380924"/>
    <node id="72" x="-112.13199542045977" y="33.45916939103474"/>
    <node id="73" x="-112.13445038030181" y="33.45549760270624" type="traffic_light"/>
    <node id="74" x="-112.19474771775627" y="33.46983072491799"/>
    <node id="75" x="-112.13573554235474" y="33.45549741869376"/>
    <node id="76" x="-112.24581338373812" y="33.49309766731186"/>
    <node id="77" x="-112.19472825257381" y="33.4663763710578" type="traffic_light"/>
    <node id="78" x="-112.24602497028962" y="33.48092339448715"/>
    <node id="79" x="-112.23544113813405" y="33.487364473754525"/>
    <node id="80" x="-112.18608324795869" y="33.46401534799266" type="traffic_light"/>
    <node id="81" x="-112.1331389904465" y="33.455497776742575"/>
    <node id="82" x="-112.1131929332469" y="33.45165685497013" type="traffic_light"/>
    <node id="83" x="-112.11320929349887" y="33.45231915040559"/>
    <node id="84" x="-112.1131700317573" y="33.450678526352064"/>
    <node id="85" x="-112.11301000955123" y="33.43831750005329"/>
    <node id="86" x="-112.11297081995225" y="33.435437470720345"/>
    <node id="87" x="-112.11299368096903" y="33.43710283136524" type="traffic_light"/>
    <node id="88" x="-112.22134874033311" y="33.487676644348326"/>
    <node id="89" x="-112.22865973651056" y="33.45221703471466" type="traffic_light"/>
    <node id="90" x="-112.20291259015018" y="33.46995726641279"/>
    <node id="91" x="-112.20101134131303" y="33.48762059347916"/>
    <node id="92" x="-112.10870634142442" y="33.43709985889288" type="traffic_light"/>
    <node id="93" x="-112.20298202620454" y="33.463875664892456" type="traffic_light"/>
    <node id="94" x="-112.10874547920315" y="33.43908400261442"/>
    <node id="95" x="-112.22864649619495" y="33.44955137988569"/>
    <node id="96" x="-112.2114695785399" y="33.468796861057484"/>
    <node id="97" x="-112.21146568713887" y="33.46519684849497"/>
    <node id="98" x="-112.22010073252771" y="33.46954848289019" type="traffic_light"/>
    <node id="99" x="-112.22004465006066" y="33.463700565472415" type="traffic_light"/>
    <node id="100" x="-112.10873598602757" y="33.435635113793445"/>
    <node id="101" x="-112.18772212268911" y="33.487703051773735"/>
    <node id="102" x="-112.18365531086363" y="33.48770529467371"/>
    <node id="103" x="-112.23447061524739" y="33.472937886601976"/>
    <node id="104" x="-112.17063485134793" y="33.48754669228609"/>
    <node id="105" x="-112.23726601374392" y="33.469321461190134"/>
    <node id="106" x="-112.25291044489245" y="33.4800641445191"/>
    <node id="107" x="-112.10767711768204" y="33.43709978297384" type="traffic_light"/>
    <node id="108" x="-112.22231396939594" y="33.469472429681"/>
    <node id="109" x="-112.21804080329622" y="33.466095808078904"/>
    <node id="110" x="-112.10768684056899" y="33.43809735054638"/>
    <node id="111" x="-112.10766089383235" y="33.435613049600285"/>
    <node id="112" x="-112.13449231290156" y="33.435348421821246"/>
    <node id="113" x="-112.2670322667503" y="33.465221900889034" type="traffic_light"/>
    <node id="114" x="-112.26863880150924" y="33.46516498857431" type="traffic_light"/>
    <node id="115" x="-112.12274995269958" y="33.462720694196534"/>
    <node id="116" x="-112.11708094183133" y="33.482240583865114"/>
    <node id="117" x="-112.12329418968147" y="33.46220952136593"/>
    <node id="118" x="-112.19449500235065" y="33.48066938991166" type="traffic_light"/>
    <node id="120" x="-112.27167160209132" y="33.46509254757167" type="traffic_light"/>
    <node id="121" x="-112.2717108016096" y="33.46685952798258" type="traffic_light"/>
    <node id="122" x="-112.27165094726962" y="33.46268798372325" type="traffic_light"/>
    <node id="123" x="-112.27604876771738" y="33.46504579961406"/>
    <node id="124" x="-112.18573228352801" y="33.480542626299254" type="traffic_light"/>
    <node id="125" x="-112.14288826985828" y="33.49710789155389"/>
    <node id="126" x="-112.17724498338701" y="33.480302438296505" type="traffic_light"/>
    <node id="127" x="-112.16899502448244" y="33.482045697299995"/>
    <node id="128" x="-112.22282997154933" y="33.47316818769886"/>
    <node id="129" x="-112.18570708437416" y="33.48186172716163"/>
    <node id="130" x="-112.19446979958973" y="33.48183459898058"/>
    <node id="131" x="-112.19457201125003" y="33.47875666554541"/>
    <node id="132" x="-112.20281319127206" y="33.482268821457296"/>
    <node id="133" x="-112.21157608479713" y="33.48237239232256"/>
    <node id="134" x="-112.14288713021902" y="33.49322758546921"/>
    <node id="135" x="-112.21996130372213" y="33.48478680544576" type="traffic_light"/>
    <node id="136" x="-112.26394665020011" y="33.49429219649562" type="traffic_light"/>
    <node id="137" x="-112.26514159246658" y="33.498767412663675"/>
    <node id="138" x="-112.27481966047081" y="33.49429809221723"/>
    <node id="139" x="-112.26340886419712" y="33.49045924586478"/>
    <node id="140" x="-112.26243791852689" y="33.49038343996115"/>
    <node id="141" x="-112.26415759912643" y="33.49879056718476"/>
    <node id="142" x="-112.2676059738182" y="33.46896961676828"/>
    <node id="143" x="-112.26874702005661" y="33.46894624356153"/>
    <node id="144" x="-112.21826120280122" y="33.46954174984278"/>
    <node id="145" x="-112.25572412892039" y="33.494472033325856"/>
    <node id="146" x="-112.262377439941" y="33.47967968684434" type="traffic_light"/>
    <node id="147" x="-112.2627683048975" y="33.483974501069916"/>
    <node id="148" x="-112.26432819102294" y="33.475508526149916"/>
    <node id="149" x="-112.2375365536426" y="33.46339903761613" type="traffic_light"/>
    <node id="150" x="-112.263813823131" y="33.47968624197238" type="traffic_light"/>
    <node id="151" x="-112.27172008024665" y="33.49427725974234" type="traffic_light"/>
    <node id="152" x="-112.26329881892104" y="33.4854688402991"/>
    <node id="153" x="-112.24577282655297" y="33.494507479670034" type="traffic_light"/>
    <node id="154" x="-112.21794411881099" y="33.47322721141628"/>
    <node id="155" x="-112.10019850202126" y="33.46389856488044"/>
    <node id="156" x="-112.22873906657364" y="33.47835692510237"/>
    <node id="157" x="-112.15984754570721" y="33.49337682147293"/>
    <node id="158" x="-112.16676485856347" y="33.48760325802329"/>
    <node id="159" x="-112.1537445718843" y="33.4877451714996"/>
    <node id="160" x="-112.14984174191277" y="33.48774625651049"/>
    <node id="161" x="-112.27573073118316" y="33.45062690032305"/>
    <node id="162" x="-112.27164598459854" y="33.450632050798276" type="traffic_light"/>
    <node id="163" x="-112.2716751626796" y="33.459700765022106" type="traffic_light"/>
    <node id="164" x="-112.27159416323117" y="33.44728491853625" type="traffic_light"/>
    <node id="165" x="-112.2544352107582" y="33.45080616813401" type="traffic_light"/>
    <node id="166" x="-112.27167451835545" y="33.461187490024386" type="traffic_light"/>
    <node id="167" x="-112.23702524778601" y="33.49453547391616" type="traffic_light"/>
    <node id="168" x="-112.25437001031244" y="33.44895401446688"/>
    <node id="169" x="-112.14282057585483" y="33.47876161988393"/>
    <node id="170" x="-112.23761252309497" y="33.46142857297175" type="traffic_light"/>
    <node id="171" x="-112.22019010645795" y="33.459155078162766" type="traffic_light"/>
    <node id="172" x="-112.19055025468857" y="33.47334534928594"/>
    <node id="173" x="-112.21572556285933" y="33.462879636862844"/>
    <node id="174" x="-112.24535150851713" y="33.462280980411066"/>
    <node id="175" x="-112.14986905366638" y="33.473071401845644"/>
    <node id="176" x="-112.19809223869265" y="33.473285703402524"/>
    <node id="177" x="-112.20296099721303" y="33.46249613051053" type="traffic_light"/>
    <node id="178" x="-112.10033529678677" y="33.451787667666295" type="traffic_light"/>
    <node id="179" x="-112.13652295088943" y="33.47299174263968"/>
    <node id="180" x="-112.14304706281568" y="33.468373747985986"/>
    <node id="181" x="-112.11763506087061" y="33.448782398439256"/>
    <node id="182" x="-112.2717134665261" y="33.46836273574705"/>
    <node id="183" x="-112.20277653791379" y="33.49503923996784" type="traffic_light"/>
    <node id="184" x="-112.11057674290682" y="33.494933851874045"/>
    <node id="185" x="-112.23579860895585" y="33.49458062204134"/>
    <node id="186" x="-112.23710062603398" y="33.48734364455213" type="traffic_light"/>
    <node id="187" x="-112.17722294457137" y="33.48163527653298"/>
    <node id="188" x="-112.18618356312363" y="33.44989001418208"/>
    <node id="189" x="-112.1517500847082" y="33.46175419947981" type="traffic_light"/>
    <node id="190" x="-112.21149072047969" y="33.47925061864996"/>
    <node id="191" x="-112.18400510881274" y="33.47338751557596"/>
    <node id="192" x="-112.22007161521246" y="33.49488595593492" type="traffic_light"/>
    <node id="193" x="-112.21140933179191" y="33.49496978110306" type="traffic_light"/>
    <node id="194" x="-112.17101968355473" y="33.47339381915602"/>
    <node id="195" x="-112.2199581636046" y="33.48768604788117" type="traffic_light"/>
    <node id="196" x="-112.19470785266569" y="33.49507202131582" type="traffic_light"/>
    <node id="197" x="-112.14306112949475" y="33.44938706408095"/>
    <node id="198" x="-112.18604883263741" y="33.4951870487653" type="traffic_light"/>
    <node id="199" x="-112.1771928779028" y="33.49513668092198" type="traffic_light"/>
    <node id="200" x="-112.16840254893123" y="33.49511313405306" type="traffic_light"/>
    <node id="201" x="-112.16843091033256" y="33.487555864759344" type="traffic_light"/>
    <node id="202" x="-112.17744298134916" y="33.467839703611965"/>
    <node id="203" x="-112.13444896534496" y="33.44829205436543" type="traffic_light"/>
    <node id="204" x="-112.13448131529206" y="33.46275810071661" type="traffic_light"/>
    <node id="205" x="-112.14304576484334" y="33.46397677998501"/>
    <node id="206" x="-112.15135268718814" y="33.49359929170198"/>
    <node id="207" x="-112.20279877146805" y="33.48762212189602" type="traffic_light"/>
    <node id="208" x="-112.1176416200825" y="33.4495820992548" type="traffic_light"/>
    <node id="209" x="-112.20471411210019" y="33.48762628251243"/>
    <node id="210" x="-112.18585598083718" y="33.487704097544366" type="traffic_light"/>
    <node id="211" x="-112.12606070200587" y="33.454882899963614"/>
    <node id="212" x="-112.15128152434575" y="33.48774312245409" type="traffic_light"/>
    <node id="213" x="-112.1430426670735" y="33.45347900625124"/>
    <node id="214" x="-112.15987133267396" y="33.49506963830535" type="traffic_light"/>
    <node id="215" x="-112.15135328569306" y="33.495129979098024" type="traffic_light"/>
    <node id="216" x="-112.15989515824943" y="33.49683940121492"/>
    <node id="217" x="-112.10901976199375" y="33.450158924106"/>
    <node id="218" x="-112.10896700010726" y="33.45337970742279"/>
    <node id="219" x="-112.1513081474079" y="33.4971306022985"/>
    <node id="220" x="-112.12583218024346" y="33.46483106704468"/>
    <node id="221" x="-112.20667980086196" y="33.46319152520491"/>
    <node id="222" x="-112.12606015465809" y="33.44941415813091"/>
    <node id="224" x="-112.16850564878817" y="33.49752866391693"/>
    <node id="226" x="-112.17718453541751" y="33.49731317329381"/>
    <node id="227" x="-112.22006709554975" y="33.49383618891243"/>
    <node id="229" x="-112.27167132744567" y="33.45198408836238"/>
    <node id="231" x="-112.17287643202917" y="33.495124950178884" type="traffic_light"/>
    <node id="232" x="-112.17288018224379" y="33.49586143708668"/>
    <node id="233" x="-112.25648481167353" y="33.47995025945974"/>
    <node id="234" x="-112.20152279725882" y="33.480659319615256"/>
    <node id="235" x="-112.11868391181655" y="33.4371029002426"/>
    <node id="236" x="-112.16771179899818" y="33.48040286276404"/>
    <node id="237" x="-112.23717081213826" y="33.481152118939704"/>
    <node id="239" x="-112.17285539127406" y="33.49299243991542"/>
    <node id="241" x="-112.17478537278016" y="33.4951240799294" type="traffic_light"/>
    <node id="242" x="-112.10252274111994" y="33.46638864822545"/>
    <node id="243" x="-112.17439349995162" y="33.49775143625915"/>
    <node id="244" x="-112.1741539032906" y="33.49249719465574"/>
    <node id="247" x="-112.14288765642759" y="33.49501934183909" type="traffic_light"/>
    <node id="248" x="-112.18605365175938" y="33.497135442741026"/>
    <node id="250" x="-112.1946599160994" y="33.496492814356905"/>
    <node id="251" x="-112.16892780842437" y="33.46269908660782" type="traffic_light"/>
    <node id="252" x="-112.19467702098837" y="33.49359631527313"/>
    <node id="253" x="-112.20276202721084" y="33.4969629135514"/>
    <node id="254" x="-112.21186196331583" y="33.49496668857601" type="traffic_light"/>
    <node id="255" x="-112.21185677696829" y="33.496230814270945"/>
    <node id="256" x="-112.21140030852442" y="33.49269162006909"/>
    <node id="257" x="-112.22001532349888" y="33.49721363504991"/>
    <node id="258" x="-112.22911099882823" y="33.49474072769318" type="traffic_light"/>
    <node id="259" x="-112.22912847220017" y="33.49557613139595"/>
    <node id="260" x="-112.22908315302205" y="33.49349037148835"/>
    <node id="261" x="-112.23700793098853" y="33.49625304685226"/>
    <node id="262" x="-112.11730067577993" y="33.463056081249476" type="traffic_light"/>
    <node id="266" x="-112.24576540484085" y="33.496145348769964"/>
    <node id="267" x="-112.25469072704797" y="33.49641058593125"/>
    <node id="268" x="-112.2460041166476" y="33.47790875409698"/>
    <node id="269" x="-112.12990555045194" y="33.49494713981074" type="traffic_light"/>
    <node id="270" x="-112.12995757223311" y="33.491792323560375"/>
    <node id="271" x="-112.12560224199527" y="33.49494750145915" type="traffic_light"/>
    <node id="272" x="-112.22869389661636" y="33.463552945033314"/>
    <node id="273" x="-112.258681826085" y="33.47983784967844" type="traffic_light"/>
    <node id="274" x="-112.2587108706288" y="33.47752941555891"/>
    <node id="275" x="-112.11707106420222" y="33.49491754759498" type="traffic_light"/>
    <node id="276" x="-112.12558276873817" y="33.49712673971568"/>
    <node id="280" x="-112.12561183284485" y="33.492328568123355"/>
    <node id="281" x="-112.117071072741" y="33.492155714002784"/>
    <node id="282" x="-112.11705137689395" y="33.49719296773311"/>
    <node id="283" x="-112.11346966708764" y="33.49495046455433" type="traffic_light"/>
    <node id="284" x="-112.11260375832224" y="33.49493394592845" type="traffic_light"/>
    <node id="285" x="-112.10850708606053" y="33.494952958277054" type="traffic_light"/>
    <node id="286" x="-112.11281060615232" y="33.49089425636426"/>
    <node id="287" x="-112.11322385882937" y="33.4909602250424"/>
    <node id="288" x="-112.11273155752862" y="33.49718463809726"/>
    <node id="289" x="-112.11312510860608" y="33.498305873340676"/>
    <node id="290" x="-112.10644726784669" y="33.4949747790701"/>
    <node id="291" x="-112.10852010782205" y="33.49592028768353"/>
    <node id="292" x="-112.10850721330361" y="33.49369982798625"/>
    <node id="299" x="-112.14283448936003" y="33.481479486912164"/>
    <node id="300" x="-112.22206023569676" y="33.48478779779452"/>
    <node id="301" x="-112.2180394752674" y="33.48479112996674"/>
    <node id="302" x="-112.264669039513" y="33.47733285798772"/>
    <node id="303" x="-112.24515405894725" y="33.46178652533631"/>
    <node id="304" x="-112.26253510957187" y="33.46213838191171"/>
    <node id="305" x="-112.2625542045825" y="33.46179209848595"/>
    <node id="306" x="-112.25451402545585" y="33.45922078496802" type="traffic_light"/>
    <node id="307" x="-112.25779590258246" y="33.459208866118125"/>
    <node id="308" x="-112.25452898206544" y="33.45414501593896" type="traffic_light"/>
    <node id="309" x="-112.25817457707366" y="33.45413543247431"/>
    <node id="310" x="-112.25130948807471" y="33.45409357418531"/>
    <node id="311" x="-112.27168239831622" y="33.458233268191954" type="traffic_light"/>
    <node id="312" x="-112.27528448963706" y="33.45764338541803"/>
    <node id="313" x="-112.26769234505082" y="33.45822168244163"/>
    <node id="314" x="-112.27405192040743" y="33.46684834628528"/>
    <node id="315" x="-112.27167428224118" y="33.47955303912851" type="traffic_light"/>
    <node id="316" x="-112.27585550251058" y="33.47955600646193"/>
    <node id="317" x="-112.2717346904185" y="33.49696487186598"/>
    <node id="318" x="-112.21178098445733" y="33.45358860552006"/>
    <node id="319" x="-112.19472677998337" y="33.464719264923545"/>
    <node id="320" x="-112.13169337930526" y="33.47658141641261"/>
    <node id="321" x="-112.27157062237579" y="33.43398133435591"/>
    <node id="322" x="-112.2757168414184" y="33.43576788013941"/>
    <node id="323" x="-112.27147043137094" y="33.442198319192585" type="traffic_light"/>
    <node id="324" x="-112.27359455635211" y="33.44219566100593"/>
    <node id="325" x="-112.26886116655766" y="33.44220153469996"/>
    <node id="326" x="-112.27148928753796" y="33.438032156584924" type="traffic_light"/>
    <node id="327" x="-112.27324291802937" y="33.43802996453299"/>
    <node id="328" x="-112.26888998087286" y="33.43803536012258"/>
    <node id="329" x="-112.25436382217917" y="33.43250656223031"/>
    <node id="330" x="-112.26524864921971" y="33.465265263280635"/>
    <node id="332" x="-112.25711734808777" y="33.46541210317266"/>
    <node id="333" x="-112.15993153294993" y="33.46393365527403"/>
    <node id="334" x="-112.15992039301074" y="33.467973373563524"/>
    <node id="338" x="-112.11743837927706" y="33.45917025717536" type="traffic_light"/>
    <node id="339" x="-112.12218253214112" y="33.45917016264426"/>
    <node id="340" x="-112.11406504601851" y="33.449609537499846"/>
    <node id="341" x="-112.12062482855262" y="33.449557323099555"/>
    <node id="342" x="-112.11760227542503" y="33.447710634350166"/>
    <node id="344" x="-112.23773640133807" y="33.4348129987355"/>
    <node id="345" x="-112.11732363237667" y="33.434973115563665"/>
    <node id="346" x="-112.09996449689676" y="33.43709069789368"/>
    <node id="352" x="-112.22028474575225" y="33.433806412074254"/>
    <node id="353" x="-112.20316900383705" y="33.43400905753347"/>
    <node id="354" x="-112.18602476623695" y="33.4355834160647"/>
    <node id="355" x="-112.16864591933896" y="33.435000977357284"/>
    <node id="356" x="-112.15169966451835" y="33.4336684957457"/>
    <node id="357" x="-112.25445003212647" y="33.460223914091266"/>
    <node id="359" x="-112.21730165033155" y="33.45915744066278"/>
    <node id="360" x="-112.23763923364324" y="33.44753136452041" type="traffic_light"/>
    <node id="361" x="-112.23975365501587" y="33.44752929522306"/>
    <node id="362" x="-112.23760757917665" y="33.44122172878875" type="traffic_light"/>
    <node id="363" x="-112.23490654918027" y="33.4412160744573"/>
    <node id="364" x="-112.24083965065105" y="33.441237789045935"/>
    <node id="365" x="-112.22305889076219" y="33.45915266514465"/>
    <node id="367" x="-112.2029118522567" y="33.459195688615715" type="traffic_light"/>
    <node id="368" x="-112.10797073506859" y="33.449966481409845"/>
    <node id="370" x="-112.20003319367558" y="33.45915916854071"/>
    <node id="371" x="-112.2058298007822" y="33.45917715167229"/>
    <node id="372" x="-112.21181989655274" y="33.45016992685241"/>
    <node id="373" x="-112.25448450910811" y="33.465461761508536" type="traffic_light"/>
    <node id="375" x="-112.18619092517811" y="33.45920610182747" type="traffic_light"/>
    <node id="376" x="-112.18125661166323" y="33.45920874381995"/>
    <node id="377" x="-112.1908727851567" y="33.45920341344109"/>
    <node id="378" x="-112.16867179364597" y="33.439977807580995" type="traffic_light"/>
    <node id="379" x="-112.16884697659489" y="33.4590771149446" type="traffic_light"/>
    <node id="380" x="-112.17105809786462" y="33.439976796907686"/>
    <node id="381" x="-112.16511919810594" y="33.45907860757008"/>
    <node id="382" x="-112.17131576913658" y="33.45907606473009"/>
    <node id="383" x="-112.15169985031831" y="33.45908305278743" type="traffic_light"/>
    <node id="384" x="-112.1545555191133" y="33.459082228491184"/>
    <node id="385" x="-112.14839173336033" y="33.459083925452056"/>
    <node id="386" x="-112.1371685661845" y="33.44254259392438"/>
    <node id="388" x="-112.13151825138954" y="33.44829242409367"/>
    <node id="389" x="-112.13721249089555" y="33.44829164227754"/>
    <node id="390" x="-112.25870107961984" y="33.4815966088535"/>
    <node id="391" x="-112.22441281395956" y="33.480366849092675" type="traffic_light"/>
    <node id="393" x="-112.2244102751244" y="33.478303030032905"/>
    <node id="394" x="-112.16562923269953" y="33.45058675028973"/>
    <node id="395" x="-112.16561068652949" y="33.452614863696844"/>
    <node id="396" x="-112.11016047469307" y="33.45169519003071"/>
    <node id="398" x="-112.10468565298636" y="33.4517497143962" type="traffic_light"/>
    <node id="399" x="-112.10468583777478" y="33.45047733858747"/>
    <node id="400" x="-112.10468548574883" y="33.452901173056"/>
    <node id="401" x="-112.2201126664882" y="33.476880404882046" type="traffic_light"/>
    <node id="402" x="-112.22430358384753" y="33.47687685912384"/>
    <node id="403" x="-112.22861376099438" y="33.46755425569129"/>
    <node id="404" x="-112.21599717219854" y="33.47688374892854"/>
    <node id="405" x="-112.22865974117589" y="33.45478651648855"/>
    <node id="445" x="-112.1516445551024" y="33.451877524120476" type="traffic_light"/>
    <node id="447" x="-112.15168308487628" y="33.46645347932241" type="traffic_light"/>
    <node id="453" x="-112.13450212564415" y="33.45189207422377" type="traffic_light"/>
    <node id="456" x="-112.13447548451171" y="33.466451555888376" type="traffic_light"/>
    <node id="457" x="-112.14305304538877" y="33.46642534056596" type="traffic_light"/>
    <node id="458" x="-112.12583889693596" y="33.46646069314664" type="traffic_light"/>
    <node id="461" x="-112.12608006863326" y="33.45185173221996" type="traffic_light"/>
    <node id="462" x="-112.11762851378894" y="33.451610206085746" type="traffic_light"/>
    <node id="465" x="-112.11723181759997" y="33.466466480637806" type="traffic_light"/>
    <node id="530" x="-112.22933836188611" y="33.452221919819046"/>
    <node id="531" x="-112.21615931720547" y="33.45216442072059"/>
    <node id="535" x="-112.18281171513985" y="33.451867732441876"/>
    <node id="538" x="-112.16562660927158" y="33.45176843927815" type="traffic_light"/>
    <node id="547" x="-112.12500804937658" y="33.45181882580968"/>
    <node id="550" x="-112.25468111669728" y="33.49447868989879" type="traffic_light"/>
    <node id="551" x="-112.26217554137457" y="33.49432725631233" type="traffic_light"/>
    <node id="552" x="-112.25464848188511" y="33.48003475028901" type="traffic_light"/>
    <node id="560" x="-112.10798038094435" y="33.45172527386274" type="traffic_light"/>
    <node id="561" x="-112.10897699620006" y="33.45170336019244" type="traffic_light"/>
    <node id="562" x="-112.22645009458505" y="33.452191517706744"/>
    <node id="563" x="-112.22247678914842" y="33.45223892015251"/>
    <node id="564" x="-112.23000389526018" y="33.45224330176177"/>
    <node id="565" x="-112.23568201255392" y="33.45224900492343"/>
    <node id="601" x="-112.27033745295643" y="33.45968593440803"/>
    <node id="602" x="-112.27288828492745" y="33.45971573757443"/>
    <node id="604" x="-112.27329882221713" y="33.447291030631206"/>
    <node id="606" x="-112.20670622271778" y="33.463378377318"/>
    <node id="607" x="-112.19861418168949" y="33.46334547287515"/>
    <node id="608" x="-112.19869258977623" y="33.46304312984222"/>
    <node id="609" x="-112.18128260226169" y="33.46335012732891"/>
    <node id="610" x="-112.18134796962354" y="33.46306703868733"/>
    <node id="611" x="-112.19021415418564" y="33.46356504738008"/>
    <node id="612" x="-112.19026628556314" y="33.463172037618065"/>
    <node id="614" x="-112.16378067049853" y="33.463624485258606"/>
    <node id="616" x="-112.17385307581759" y="33.463609310522564"/>
    <node id="617" x="-112.16370825787718" y="33.46309962408456"/>
    <node id="618" x="-112.17387242205146" y="33.46310639830401"/>
    <node id="619" x="-112.1479699185757" y="33.46228557568783"/>
    <node id="620" x="-112.15605214668393" y="33.4626405692863"/>
    <node id="621" x="-112.14806812534728" y="33.46184585427418"/>
    <node id="622" x="-112.15545848967515" y="33.46217357509757"/>