<?xml version="1.0" ?>
<connections>
    <connection from="338_2" to="2_262" fromLane="0" toLane="0" dir="s"/>
    <connection from="338_2" to="2_262" fromLane="1" toLane="1" dir="s"/>
    <connection from="338_2" to="2_262" fromLane="2" toLane="2" dir="s"/>
    <connection from="338_2" to="2_262" fromLane="3" toLane="3" dir="s"/>
    <connection from="338_2" to="2_117" fromLane="3" toLane="0" dir="l"/>
    <connection from="262_2" to="2_117" fromLane="0" toLane="0" dir="r"/>
    <connection from="262_2" to="2_338" fromLane="0" toLane="0" dir="s"/>
    <connection from="262_2" to="2_338" fromLane="1" toLane="1" dir="s"/>
    <connection from="262_2" to="2_338" fromLane="2" toLane="2" dir="s"/>
    <connection from="117_2" to="2_338" fromLane="0" toLane="0" dir="r"/>
    <connection from="117_2" to="2_262" fromLane="1" toLane="2" dir="l"/>
    <connection from="117_2" to="2_262" fromLane="2" toLane="3" dir="l"/>
    <connection from="375_4" to="4_610" fromLane="0" toLane="0" dir="r"/>
    <connection from="375_4" to="4_80" fromLane="0" toLane="0" dir="s"/>
    <connection from="375_4" to="4_80" fromLane="1" toLane="1" dir="s"/>
    <connection from="375_4" to="4_80" fromLane="2" toLane="2" dir="s"/>
    <connection from="375_4" to="4_612" fromLane="2" toLane="0" dir="l"/>
    <connection from="80_4" to="4_612" fromLane="0" toLane="0" dir="r"/>
    <connection from="80_4" to="4_375" fromLane="0" toLane="0" dir="s"/>
    <connection from="80_4" to="4_375" fromLane="1" toLane="1" dir="s"/>
    <connection from="80_4" to="4_375" fromLane="2" toLane="2" dir="s"/>
    <connection from="80_4" to="4_610" fromLane="3" toLane="0" dir="l"/>
    <connection from="80_4" to="4_610" fromLane="4" toLane="1" dir="l"/>
    <connection from="612_4" to="4_375" fromLane="0" toLane="0" dir="r"/>
    <connection from="612_4" to="4_610" fromLane="1" toLane="0" dir="s"/>
    <connection from="612_4" to="4_80" fromLane="2" toLane="3" dir="l"/>
    <connection from="610_4" to="4_80" fromLane="0" toLane="0" dir="r"/>
    <connection from="610_4" to="4_375" fromLane="0" toLane="3" dir="l"/>
    <connection from="949_8" to="8_10" fromLane="0" toLane="0" dir="s"/>
    <connection from="949_8" to="8_10" fromLane="1" toLane="1" dir="s"/>
    <connection from="949_8" to="8_10" fromLane="2" toLane="2" dir="s"/>
    <connection from="949_8" to="8_194" fromLane="3" toLane="0" dir="l"/>
    <connection from="10_8" to="8_194" fromLane="0" toLane="0" dir="r"/>
    <connection from="10_8" to="8_949" fromLane="0" toLane="0" dir="s"/>
    <connection from="10_8" to="8_949" fromLane="1" toLane="1" dir="s"/>
    <connection from="194_8" to="8_949" fromLane="0" toLane="0" dir="r"/>
    <connection from="194_8" to="8_10" fromLane="1" toLane="3" dir="l"/>
    <connection from="171_9" to="9_173" fromLane="0" toLane="0" dir="r"/>
    <connection from="171_9" to="9_99" fromLane="1" toLane="0" dir="s"/>
    <connection from="171_9" to="9_99" fromLane="2" toLane="1" dir="s"/>
    <connection from="171_9" to="9_21" fromLane="2" toLane="0" dir="l"/>
    <connection from="99_9" to="9_21" fromLane="0" toLane="0" dir="r"/>
    <connection from="99_9" to="9_171" fromLane="0" toLane="0" dir="s"/>
    <connection from="99_9" to="9_171" fromLane="1" toLane="1" dir="s"/>
    <connection from="99_9" to="9_173" fromLane="2" toLane="0" dir="l"/>
    <connection from="99_9" to="9_173" fromLane="3" toLane="1" dir="l"/>
    <connection from="21_9" to="9_171" fromLane="0" toLane="0" dir="r"/>
    <connection from="21_9" to="9_173" fromLane="1" toLane="0" dir="s"/>
    <connection from="21_9" to="9_99" fromLane="2" toLane="3" dir="l"/>
    <connection from="173_9" to="9_99" fromLane="0" toLane="0" dir="r"/>
    <connection from="173_9" to="9_171" fromLane="0" toLane="2" dir="l"/>
    <connection from="8_10" to="10_236" fromLane="0" toLane="0" dir="r"/>
    <connection from="8_10" to="10_127" fromLane="0" toLane="0" dir="s"/>
    <connection from="8_10" to="10_127" fromLane="1" toLane="1" dir="s"/>
    <connection from="8_10" to="10_127" fromLane="2" toLane="2" dir="s"/>
    <connection from="8_10" to="10_126" fromLane="3" toLane="4" dir="l"/>
    <connection from="127_10" to="10_126" fromLane="0" toLane="0" dir="r"/>
    <connection from="127_10" to="10_8" fromLane="0" toLane="0" dir="s"/>
    <connection from="127_10" to="10_8" fromLane="1" toLane="1" dir="s"/>
    <connection from="127_10" to="10_236" fromLane="2" toLane="2" dir="l"/>
    <connection from="126_10" to="10_8" fromLane="0" toLane="0" dir="r"/>
    <connection from="126_10" to="10_236" fromLane="0" toLane="0" dir="s"/>
    <connection from="126_10" to="10_236" fromLane="1" toLane="1" dir="s"/>
    <connection from="126_10" to="10_236" fromLane="2" toLane="2" dir="s"/>
    <connection from="126_10" to="10_127" fromLane="3" toLane="2" dir="l"/>
    <connection from="236_10" to="10_127" fromLane="0" toLane="0" dir="r"/>
    <connection from="236_10" to="10_126" fromLane="0" toLane="0" dir="s"/>
    <connection from="236_10" to="10_126" fromLane="1" toLane="1" dir="s"/>
    <connection from="236_10" to="10_126" fromLane="2" toLane="2" dir="s"/>
    <connection from="236_10" to="10_8" fromLane="3" toLane="1" dir="l"/>
    <connection from="14_11" to="11_29" fromLane="0" toLane="0" dir="r"/>
    <connection from="14_11" to="11_212" fromLane="0" toLane="0" dir="s"/>
    <connection from="14_11" to="11_212" fromLane="1" toLane="1" dir="s"/>
    <connection from="14_11" to="11_212" fromLane="2" toLane="2" dir="s"/>
    <connection from="14_11" to="11_42" fromLane="3" toLane="3" dir="l"/>
    <connection from="212_11" to="11_42" fromLane="0" toLane="0" dir="r"/>
    <connection from="212_11" to="11_14" fromLane="1" toLane="0" dir="s"/>
    <connection from="212_11" to="11_14" fromLane="2" toLane="1" dir="s"/>
    <connection from="212_11" to="11_29" fromLane="3" toLane="2" dir="l"/>
    <connection from="42_11" to="11_14" fromLane="0" toLane="0" dir="r"/>
    <connection from="42_11" to="11_29" fromLane="0" toLane="0" dir="s"/>
    <connection from="42_11" to="11_29" fromLane="1" toLane="1" dir="s"/>
    <connection from="42_11" to="11_212" fromLane="2" toLane="3" dir="l"/>
    <connection from="29_11" to="11_212" fromLane="0" toLane="0" dir="r"/>
    <connection from="29_11" to="11_42" fromLane="1" toLane="0" dir="s"/>
    <connection from="29_11" to="11_42" fromLane="2" toLane="1" dir="s"/>
    <connection from="29_11" to="11_42" fromLane="3" toLane="2" dir="s"/>
    <connection from="29_11" to="11_14" fromLane="4" toLane="2" dir="l"/>
    <connection from="447_14" to="14_175" fromLane="0" toLane="0" dir="r"/>
    <connection from="447_14" to="14_11" fromLane="0" toLane="0" dir="s"/>
    <connection from="447_14" to="14_11" fromLane="1" toLane="1" dir="s"/>
    <connection from="447_14" to="14_11" fromLane="2" toLane="2" dir="s"/>
    <connection from="447_14" to="14_16" fromLane="3" toLane="0" dir="l"/>
    <connection from="11_14" to="14_16" fromLane="0" toLane="0" dir="r"/>
    <connection from="11_14" to="14_447" fromLane="0" toLane="0" dir="s"/>
    <connection from="11_14" to="14_447" fromLane="1" toLane="1" dir="s"/>
    <connection from="11_14" to="14_175" fromLane="2" toLane="0" dir="l"/>
    <connection from="16_14" to="14_447" fromLane="0" toLane="0" dir="r"/>
    <connection from="16_14" to="14_175" fromLane="0" toLane="0" dir="s"/>
    <connection from="16_14" to="14_11" fromLane="1" toLane="3" dir="l"/>
    <connection from="175_14" to="14_11" fromLane="0" toLane="0" dir="r"/>
    <connection from="175_14" to="14_16" fromLane="1" toLane="0" dir="s"/>
    <connection from="175_14" to="14_447" fromLane="2" toLane="2" dir="l"/>
    <connection from="24_19" to="19_174" fromLane="0" toLane="0" dir="r"/>
    <connection from="24_19" to="19_373" fromLane="0" toLane="0" dir="s"/>
    <connection from="24_19" to="19_373" fromLane="1" toLane="1" dir="s"/>
    <connection from="24_19" to="19_304" fromLane="2" toLane="1" dir="l"/>
    <connection from="373_19" to="19_304" fromLane="0" toLane="0" dir="r"/>
    <connection from="373_19" to="19_24" fromLane="0" toLane="0" dir="s"/>
    <connection from="373_19" to="19_24" fromLane="1" toLane="1" dir="s"/>
    <connection from="373_19" to="19_174" fromLane="1" toLane="0" dir="l"/>
    <connection from="304_19" to="19_24" fromLane="0" toLane="0" dir="r"/>
    <connection from="304_19" to="19_373" fromLane="0" toLane="2" dir="l"/>
    <connection from="174_19" to="19_373" fromLane="0" toLane="0" dir="r"/>
    <connection from="174_19" to="19_304" fromLane="1" toLane="0" dir="s"/>
    <connection from="174_19" to="19_24" fromLane="2" toLane="2" dir="l"/>
    <connection from="357_24" to="24_303" fromLane="0" toLane="0" dir="r"/>
    <connection from="357_24" to="24_19" fromLane="1" toLane="0" dir="s"/>
    <connection from="357_24" to="24_19" fromLane="2" toLane="1" dir="s"/>
    <connection from="357_24" to="24_305" fromLane="2" toLane="0" dir="l"/>
    <connection from="19_24" to="24_305" fromLane="0" toLane="0" dir="r"/>
    <connection from="19_24" to="24_357" fromLane="0" toLane="0" dir="s"/>
    <connection from="19_24" to="24_357" fromLane="1" toLane="1" dir="s"/>
    <connection from="19_24" to="24_303" fromLane="2" toLane="1" dir="l"/>
    <connection from="305_24" to="24_357" fromLane="0" toLane="0" dir="r"/>
    <connection from="305_24" to="24_303" fromLane="1" toLane="0" dir="s"/>
    <connection from="305_24" to="24_19" fromLane="2" toLane="2" dir="l"/>
    <connection from="303_24" to="24_19" fromLane="0" toLane="0" dir="r"/>
    <connection from="303_24" to="24_357" fromLane="0" toLane="1" dir="l"/>
    <connection from="169_29" to="29_30" fromLane="0" toLane="0" dir="r"/>
    <connection from="169_29" to="29_299" fromLane="1" toLane="0" dir="s"/>
    <connection from="169_29" to="29_11" fromLane="2" toLane="4" dir="l"/>
    <connection from="299_29" to="29_11" fromLane="0" toLane="0" dir="r"/>
    <connection from="299_29" to="29_169" fromLane="0" toLane="0" dir="s"/>
    <connection from="299_29" to="29_30" fromLane="1" toLane="3" dir="l"/>
    <connection from="11_29" to="29_169" fromLane="0" toLane="0" dir="r"/>
    <connection from="11_29" to="29_30" fromLane="0" toLane="0" dir="s"/>
    <connection from="11_29" to="29_30" fromLane="1" toLane="1" dir="s"/>
    <connection from="11_29" to="29_299" fromLane="2" toLane="0" dir="l"/>
    <connection from="30_29" to="29_299" fromLane="0" toLane="0" dir="r"/>
    <connection from="30_29" to="29_11" fromLane="0" toLane="0" dir="s"/>
    <connection from="30_29" to="29_11" fromLane="1" toLane="1" dir="s"/>
    <connection from="30_29" to="29_11" fromLane="2" toLane="2" dir="s"/>
    <connection from="30_29" to="29_169" fromLane="3" toLane="0" dir="l"/>
    <connection from="31_30" to="30_51" fromLane="0" toLane="0" dir="r"/>
    <connection from="31_30" to="30_27" fromLane="0" toLane="0" dir="s"/>
    <connection from="31_30" to="30_27" fromLane="1" toLane="1" dir="s"/>
    <connection from="31_30" to="30_27" fromLane="2" toLane="2" dir="s"/>
    <connection from="31_30" to="30_29" fromLane="3" toLane="3" dir="l"/>
    <connection from="27_30" to="30_29" fromLane="0" toLane="0" dir="r"/>
    <connection from="27_30" to="30_31" fromLane="0" toLane="0" dir="s"/>
    <connection from="27_30" to="30_31" fromLane="1" toLane="1" dir="s"/>
    <connection from="27_30" to="30_51" fromLane="2" toLane="2" dir="l"/>
    <connection from="29_30" to="30_31" fromLane="0" toLane="0" dir="r"/>
    <connection from="29_30" to="30_51" fromLane="1" toLane="0" dir="s"/>
    <connection from="29_30" to="30_51" fromLane="2" toLane="1" dir="s"/>
    <connection from="29_30" to="30_27" fromLane="3" toLane="2" dir="l"/>
    <connection from="51_30" to="30_27" fromLane="0" toLane="0" dir="r"/>
    <connection from="51_30" to="30_29" fromLane="0" toLane="0" dir="s"/>
    <connection from="51_30" to="30_29" fromLane="1" toLane="1" dir="s"/>
    <connection from="51_30" to="30_29" fromLane="2" toLane="2" dir="s"/>
    <connection from="51_30" to="30_31" fromLane="3" toLane="2" dir="l"/>
    <connection from="33_31" to="31_320" fromLane="0" toLane="0" dir="r"/>
    <connection from="33_31" to="31_30" fromLane="0" toLane="0" dir="s"/>
    <connection from="33_31" to="31_30" fromLane="1" toLane="1" dir="s"/>
    <connection from="33_31" to="31_30" fromLane="2" toLane="2" dir="s"/>
    <connection from="30_31" to="31_33" fromLane="0" toLane="0" dir="s"/>
    <connection from="30_31" to="31_33" fromLane="1" toLane="1" dir="s"/>
    <connection from="30_31" to="31_320" fromLane="2" toLane="0" dir="l"/>
    <connection from="320_31" to="31_30" fromLane="0" toLane="0" dir="r"/>
    <connection from="320_31" to="31_33" fromLane="1" toLane="2" dir="l"/>
    <connection from="32_33" to="33_34" fromLane="0" toLane="0" dir="r"/>
    <connection from="32_33" to="33_31" fromLane="0" toLane="0" dir="s"/>
    <connection from="32_33" to="33_31" fromLane="1" toLane="1" dir="s"/>
    <connection from="32_33" to="33_179" fromLane="2" toLane="0" dir="l"/>
    <connection from="31_33" to="33_179" fromLane="0" toLane="0" dir="r"/>
    <connection from="31_33" to="33_32" fromLane="0" toLane="0" dir="s"/>
    <connection from="31_33" to="33_32" fromLane="1" toLane="1" dir="s"/>
    <connection from="31_33" to="33_34" fromLane="2" toLane="0" dir="l"/>
    <connection from="179_33" to="33_32" fromLane="0" toLane="0" dir="r"/>
    <connection from="179_33" to="33_34" fromLane="0" toLane="0" dir="s"/>
    <connection from="179_33" to="33_31" fromLane="1" toLane="2" dir="l"/>
    <connection from="34_33" to="33_31" fromLane="0" toLane="0" dir="r"/>
    <connection from="34_33" to="33_179" fromLane="0" toLane="0" dir="s"/>
    <connection from="34_33" to="33_32" fromLane="1" toLane="1" dir="l"/>
    <connection from="465_35" to="35_36" fromLane="0" toLane="0" dir="r"/>
    <connection from="465_35" to="35_116" fromLane="0" toLane="0" dir="s"/>
    <connection from="465_35" to="35_116" fromLane="1" toLane="1" dir="s"/>
    <connection from="465_35" to="35_116" fromLane="2" toLane="2" dir="s"/>
    <connection from="465_35" to="35_39" fromLane="3" toLane="3" dir="l"/>
    <connection from="116_35" to="35_39" fromLane="0" toLane="0" dir="r"/>
    <connection from="116_35" to="35_465" fromLane="1" toLane="0" dir="s"/>
    <connection from="116_35" to="35_465" fromLane="2" toLane="1" dir="s"/>
    <connection from="116_35" to="35_36" fromLane="3" toLane="1" dir="l"/>
    <connection from="116_35" to="35_36" fromLane="4" toLane="2" dir="l"/>
    <connection from="39_35" to="35_465" fromLane="0" toLane="0" dir="r"/>
    <connection from="39_35" to="35_36" fromLane="0" toLane="0" dir="s"/>
    <connection from="39_35" to="35_36" fromLane="1" toLane="1" dir="s"/>
    <connection from="39_35" to="35_36" fromLane="2" toLane="2" dir="s"/>
    <connection from="39_35" to="35_116" fromLane="2" toLane="2" dir="l"/>
    <connection from="36_35" to="35_116" fromLane="0" toLane="0" dir="r"/>
    <connection from="36_35" to="35_39" fromLane="1" toLane="0" dir="s"/>
    <connection from="36_35" to="35_39" fromLane="2" toLane="1" dir="s"/>
    <connection from="36_35" to="35_39" fromLane="3" toLane="2" dir="s"/>
    <connection from="36_35" to="35_465" fromLane="3" toLane="2" dir="l"/>
    <connection from="204_37" to="37_623" fromLane="0" toLane="0" dir="r"/>
    <connection from="204_37" to="37_456" fromLane="0" toLane="0" dir="s"/>
    <connection from="204_37" to="37_456" fromLane="1" toLane="1" dir="s"/>
    <connection from="204_37" to="37_456" fromLane="2" toLane="2" dir="s"/>
    <connection from="204_37" to="37_624" fromLane="3" toLane="1" dir="l"/>
    <connection from="456_37" to="37_624" fromLane="0" toLane="0" dir="r"/>
    <connection from="456_37" to="37_204" fromLane="1" toLane="0" dir="s"/>
    <connection from="456_37" to="37_204" fromLane="2" toLane="1" dir="s"/>
    <connection from="456_37" to="37_204" fromLane="3" toLane="2" dir="s"/>
    <connection from="456_37" to="37_204" fromLane="4" toLane="3" dir="s"/>
    <connection from="456_37" to="37_623" fromLane="4" toLane="0" dir="l"/>
    <connection from="624_37" to="37_204" fromLane="0" toLane="0" dir="r"/>
    <connection from="624_37" to="37_456" fromLane="0" toLane="3" dir="l"/>
    <connection from="623_37" to="37_456" fromLane="0" toLane="0" dir="r"/>
    <connection from="623_37" to="37_624" fromLane="1" toLane="0" dir="s"/>
    <connection from="623_37" to="37_204" fromLane="2" toLane="3" dir="l"/>
    <connection from="41_39" to="39_35" fromLane="0" toLane="0" dir="r"/>
    <connection from="41_39" to="39_40" fromLane="0" toLane="0" dir="s"/>
    <connection from="41_39" to="39_51" fromLane="1" toLane="2" dir="l"/>
    <connection from="40_39" to="39_51" fromLane="0" toLane="0" dir="r"/>
    <connection from="40_39" to="39_41" fromLane="0" toLane="0" dir="s"/>
    <connection from="40_39" to="39_35" fromLane="1" toLane="2" dir="l"/>
    <connection from="51_39" to="39_41" fromLane="0" toLane="0" dir="r"/>
    <connection from="51_39" to="39_35" fromLane="0" toLane="0" dir="s"/>
    <connection from="51_39" to="39_35" fromLane="1" toLane="1" dir="s"/>
    <connection from="51_39" to="39_40" fromLane="2" toLane="0" dir="l"/>
    <connection from="35_39" to="39_40" fromLane="0" toLane="0" dir="r"/>
    <connection from="35_39" to="39_51" fromLane="0" toLane="0" dir="s"/>
    <connection from="35_39" to="39_51" fromLane="1" toLane="1" dir="s"/>
    <connection from="35_39" to="39_51" fromLane="2" toLane="2" dir="s"/>
    <connection from="35_39" to="39_41" fromLane="3" toLane="0" dir="l"/>
    <connection from="43_42" to="42_11" fromLane="0" toLane="0" dir="r"/>
    <connection from="43_42" to="42_236" fromLane="1" toLane="2" dir="l"/>
    <connection from="236_42" to="42_43" fromLane="0" toLane="0" dir="r"/>
    <connection from="236_42" to="42_11" fromLane="1" toLane="0" dir="s"/>
    <connection from="236_42" to="42_11" fromLane="2" toLane="1" dir="s"/>
    <connection from="11_42" to="42_236" fromLane="0" toLane="0" dir="s"/>
    <connection from="11_42" to="42_236" fromLane="1" toLane="1" dir="s"/>
    <connection from="11_42" to="42_236" fromLane="2" toLane="2" dir="s"/>
    <connection from="11_42" to="42_43" fromLane="3" toLane="0" dir="l"/>
    <connection from="333_47" to="47_447" fromLane="0" toLane="0" dir="r"/>
    <connection from="333_47" to="47_334" fromLane="1" toLane="0" dir="s"/>
    <connection from="333_47" to="47_949" fromLane="2" toLane="3" dir="l"/>
    <connection from="334_47" to="47_949" fromLane="0" toLane="0" dir="r"/>
    <connection from="334_47" to="47_333" fromLane="0" toLane="0" dir="s"/>
    <connection from="334_47" to="47_447" fromLane="1" toLane="2" dir="l"/>
    <connection from="949_47" to="47_333" fromLane="0" toLane="0" dir="r"/>
    <connection from="949_47" to="47_447" fromLane="0" toLane="0" dir="s"/>
    <connection from="949_47" to="47_447" fromLane="1" toLane="1" dir="s"/>
    <connection from="949_47" to="47_334" fromLane="1" toLane="0" dir="l"/>
    <connection from="447_47" to="47_334" fromLane="0" toLane="0" dir="r"/>
    <connection from="447_47" to="47_949" fromLane="0" toLane="0" dir="s"/>
    <connection from="447_47" to="47_949" fromLane="1" toLane="1" dir="s"/>
    <connection from="447_47" to="47_949" fromLane="2" toLane="2" dir="s"/>
    <connection from="447_47" to="47_333" fromLane="2" toLane="0" dir="l"/>
    <connection from="62_49" to="49_20" fromLane="0" toLane="0" dir="s"/>
    <connection from="62_49" to="49_20" fromLane="1" toLane="1" dir="s"/>
    <connection from="62_49" to="49_68" fromLane="2" toLane="0" dir="l"/>
    <connection from="20_49" to="49_68" fromLane="0" toLane="0" dir="r"/>
    <connection from="20_49" to="49_62" fromLane="0" toLane="0" dir="s"/>
    <connection from="20_49" to="49_62" fromLane="1" toLane="1" dir="s"/>
    <connection from="20_49" to="49_62" fromLane="2" toLane="2" dir="s"/>
    <connection from="68_49" to="49_62" fromLane="0" toLane="0" dir="r"/>
    <connection from="68_49" to="49_20" fromLane="1" toLane="1" dir="l"/>
    <connection from="59_51" to="51_39" fromLane="0" toLane="0" dir="r"/>
    <connection from="59_51" to="51_53" fromLane="0" toLane="0" dir="s"/>
    <connection from="59_51" to="51_30" fromLane="0" toLane="3" dir="l"/>
    <connection from="53_51" to="51_30" fromLane="0" toLane="0" dir="r"/>
    <connection from="53_51" to="51_59" fromLane="0" toLane="0" dir="s"/>
    <connection from="53_51" to="51_39" fromLane="0" toLane="2" dir="l"/>
    <connection from="30_51" to="51_59" fromLane="0" toLane="0" dir="r"/>
    <connection from="30_51" to="51_39" fromLane="0" toLane="0" dir="s"/>
    <connection from="30_51" to="51_39" fromLane="1" toLane="1" dir="s"/>
    <connection from="30_51" to="51_53" fromLane="2" toLane="0" dir="l"/>
    <connection from="39_51" to="51_53" fromLane="0" toLane="0" dir="r"/>
    <connection from="39_51" to="51_30" fromLane="0" toLane="0" dir="s"/>
    <connection from="39_51" to="51_30" fromLane="1" toLane="1" dir="s"/>
    <connection from="39_51" to="51_30" fromLane="2" toLane="2" dir="s"/>
    <connection from="39_51" to="51_59" fromLane="2" toLane="0" dir="l"/>
    <connection from="189_55" to="55_619" fromLane="0" toLane="0" dir="r"/>
    <connection from="189_55" to="55_447" fromLane="0" toLane="0" dir="s"/>
    <connection from="189_55" to="55_447" fromLane="1" toLane="1" dir="s"/>
    <connection from="189_55" to="55_447" fromLane="2" toLane="2" dir="s"/>
    <connection from="189_55" to="55_620" fromLane="3" toLane="1" dir="l"/>
    <connection from="447_55" to="55_620" fromLane="0" toLane="0" dir="r"/>
    <connection from="447_55" to="55_189" fromLane="1" toLane="0" dir="s"/>
    <connection from="447_55" to="55_189" fromLane="2" toLane="1" dir="s"/>
    <connection from="447_55" to="55_189" fromLane="3" toLane="2" dir="s"/>
    <connection from="447_55" to="55_189" fromLane="4" toLane="3" dir="s"/>
    <connection from="447_55" to="55_619" fromLane="4" toLane="0" dir="l"/>
    <connection from="620_55" to="55_189" fromLane="0" toLane="0" dir="r"/>
    <connection from="620_55" to="55_447" fromLane="0" toLane="3" dir="l"/>
    <connection from="619_55" to="55_447" fromLane="0" toLane="0" dir="r"/>
    <connection from="619_55" to="55_620" fromLane="1" toLane="0" dir="s"/>
    <connection from="619_55" to="55_189" fromLane="2" toLane="3" dir="l"/>
    <connection from="61_56" to="56_57" fromLane="0" toLane="0" dir="r"/>
    <connection from="61_56" to="56_203" fromLane="0" toLane="0" dir="s"/>
    <connection from="61_56" to="56_203" fromLane="1" toLane="1" dir="s"/>
    <connection from="61_56" to="56_203" fromLane="2" toLane="2" dir="s"/>
    <connection from="61_56" to="56_386" fromLane="3" toLane="0" dir="l"/>
    <connection from="203_56" to="56_386" fromLane="0" toLane="0" dir="r"/>
    <connection from="203_56" to="56_61" fromLane="0" toLane="0" dir="s"/>
    <connection from="203_56" to="56_61" fromLane="1" toLane="1" dir="s"/>
    <connection from="203_56" to="56_57" fromLane="2" toLane="0" dir="l"/>
    <connection from="386_56" to="56_61" fromLane="0" toLane="0" dir="r"/>
    <connection from="386_56" to="56_57" fromLane="0" toLane="0" dir="s"/>
    <connection from="386_56" to="56_203" fromLane="1" toLane="3" dir="l"/>
    <connection from="57_56" to="56_203" fromLane="0" toLane="0" dir="r"/>
    <connection from="57_56" to="56_386" fromLane="0" toLane="0" dir="s"/>
    <connection from="57_56" to="56_61" fromLane="1" toLane="2" dir="l"/>
    <connection from="356_58" to="58_6" fromLane="0" toLane="0" dir="r"/>
    <connection from="356_58" to="58_445" fromLane="0" toLane="0" dir="s"/>
    <connection from="356_58" to="58_445" fromLane="1" toLane="1" dir="s"/>
    <connection from="356_58" to="58_686" fromLane="2" toLane="2" dir="l"/>
    <connection from="445_58" to="58_686" fromLane="0" toLane="0" dir="r"/>
    <connection from="445_58" to="58_356" fromLane="1" toLane="0" dir="s"/>
    <connection from="445_58" to="58_356" fromLane="2" toLane="1" dir="s"/>
    <connection from="445_58" to="58_6" fromLane="3" toLane="1" dir="l"/>
    <connection from="686_58" to="58_356" fromLane="0" toLane="0" dir="r"/>
    <connection from="686_58" to="58_6" fromLane="0" toLane="0" dir="s"/>
    <connection from="686_58" to="58_6" fromLane="1" toLane="1" dir="s"/>
    <connection from="686_58" to="58_445" fromLane="2" toLane="3" dir="l"/>
    <connection from="6_58" to="58_445" fromLane="0" toLane="0" dir="r"/>
    <connection from="6_58" to="58_686" fromLane="0" toLane="0" dir="s"/>
    <connection from="6_58" to="58_686" fromLane="1" toLane="1" dir="s"/>
    <connection from="6_58" to="58_356" fromLane="2" toLane="1" dir="l"/>
    <connection from="112_61" to="61_63" fromLane="0" toLane="0" dir="r"/>
    <connection from="112_61" to="61_56" fromLane="0" toLane="0" dir="s"/>
    <connection from="112_61" to="61_56" fromLane="1" toLane="1" dir="s"/>
    <connection from="112_61" to="61_56" fromLane="2" toLane="2" dir="s"/>
    <connection from="112_61" to="61_6" fromLane="3" toLane="2" dir="l"/>
    <connection from="56_61" to="61_6" fromLane="0" toLane="0" dir="r"/>
    <connection from="56_61" to="61_112" fromLane="0" toLane="0" dir="s"/>
    <connection from="56_61" to="61_112" fromLane="1" toLane="1" dir="s"/>
    <connection from="56_61" to="61_63" fromLane="2" toLane="2" dir="l"/>
    <connection from="6_61" to="61_112" fromLane="0" toLane="0" dir="r"/>
    <connection from="6_61" to="61_63" fromLane="0" toLane="0" dir="s"/>
    <connection from="6_61" to="61_63" fromLane="1" toLane="1" dir="s"/>
    <connection from="6_61" to="61_56" fromLane="2" toLane="3" dir="l"/>
    <connection from="63_61" to="61_56" fromLane="0" toLane="0" dir="r"/>
    <connection from="63_61" to="61_6" fromLane="0" toLane="0" dir="s"/>
    <connection from="63_61" to="61_6" fromLane="1" toLane="1" dir="s"/>
    <connection from="63_61" to="61_6" fromLane="2" toLane="2" dir="s"/>
    <connection from="63_61" to="61_112" fromLane="3" toLane="1" dir="l"/>
    <connection from="345_62" to="62_87" fromLane="0" toLane="0" dir="r"/>
    <connection from="345_62" to="62_49" fromLane="0" toLane="0" dir="s"/>
    <connection from="345_62" to="62_49" fromLane="1" toLane="1" dir="s"/>
    <connection from="345_62" to="62_235" fromLane="2" toLane="2" dir="l"/>
    <connection from="49_62" to="62_235" fromLane="0" toLane="0" dir="r"/>
    <connection from="49_62" to="62_345" fromLane="1" toLane="0" dir="s"/>
    <connection from="49_62" to="62_345" fromLane="2" toLane="1" dir="s"/>
    <connection from="49_62" to="62_87" fromLane="3" toLane="2" dir="l"/>
    <connection from="235_62" to="62_345" fromLane="0" toLane="0" dir="r"/>
    <connection from="235_62" to="62_87" fromLane="0" toLane="0" dir="s"/>
    <connection from="235_62" to="62_87" fromLane="1" toLane="1" dir="s"/>
    <connection from="235_62" to="62_49" fromLane="2" toLane="2" dir="l"/>
    <connection from="87_62" to="62_49" fromLane="0" toLane="0" dir="r"/>
    <connection from="87_62" to="62_235" fromLane="0" toLane="0" dir="s"/>
    <connection from="87_62" to="62_235" fromLane="1" toLane="1" dir="s"/>
    <connection from="87_62" to="62_235" fromLane="2" toLane="2" dir="s"/>
    <connection from="87_62" to="62_345" fromLane="3" toLane="1" dir="l"/>
    <connection from="64_63" to="63_235" fromLane="0" toLane="0" dir="r"/>
    <connection from="64_63" to="63_52" fromLane="0" toLane="0" dir="s"/>
    <connection from="64_63" to="63_61" fromLane="1" toLane="3" dir="l"/>
    <connection from="52_63" to="63_61" fromLane="0" toLane="0" dir="r"/>
    <connection from="52_63" to="63_64" fromLane="0" toLane="0" dir="s"/>
    <connection from="52_63" to="63_235" fromLane="1" toLane="1" dir="l"/>
    <connection from="61_63" to="63_64" fromLane="0" toLane="0" dir="r"/>
    <connection from="61_63" to="63_235" fromLane="0" toLane="0" dir="s"/>
    <connection from="61_63" to="63_235" fromLane="1" toLane="1" dir="s"/>
    <connection from="61_63" to="63_52" fromLane="2" toLane="0" dir="l"/>
    <connection from="235_63" to="63_52" fromLane="0" toLane="0" dir="r"/>
    <connection from="235_63" to="63_61" fromLane="0" toLane="0" dir="s"/>
    <connection from="235_63" to="63_61" fromLane="1" toLane="1" dir="s"/>
    <connection from="235_63" to="63_64" fromLane="2" toLane="0" dir="l"/>
    <connection from="251_65" to="65_614" fromLane="0" toLane="0" dir="r"/>
    <connection from="251_65" to="65_949" fromLane="0" toLane="0" dir="s"/>
    <connection from="251_65" to="65_949" fromLane="1" toLane="1" dir="s"/>
    <connection from="251_65" to="65_949" fromLane="2" toLane="2" dir="s"/>
    <connection from="251_65" to="65_616" fromLane="3" toLane="1" dir="l"/>
    <connection from="949_65" to="65_616" fromLane="0" toLane="0" dir="r"/>
    <connection from="949_65" to="65_251" fromLane="1" toLane="0" dir="s"/>
    <connection from="949_65" to="65_251" fromLane="2" toLane="1" dir="s"/>
    <connection from="949_65" to="65_251" fromLane="3" toLane="2" dir="s"/>
    <connection from="949_65" to="65_251" fromLane="4" toLane="3" dir="s"/>
    <connection from="949_65" to="65_614" fromLane="4" toLane="0" dir="l"/>
    <connection from="616_65" to="65_251" fromLane="0" toLane="0" dir="r"/>
    <connection from="616_65" to="65_949" fromLane="0" toLane="4" dir="l"/>
    <connection from="614_65" to="65_949" fromLane="0" toLane="0" dir="r"/>
    <connection from="614_65" to="65_616" fromLane="1" toLane="0" dir="s"/>
    <connection from="614_65" to="65_251" fromLane="2" toLane="3" dir="l"/>
    <connection from="73_69" to="69_72" fromLane="0" toLane="0" dir="r"/>
    <connection from="73_69" to="69_204" fromLane="0" toLane="0" dir="s"/>
    <connection from="73_69" to="69_204" fromLane="1" toLane="1" dir="s"/>
    <connection from="73_69" to="69_204" fromLane="2" toLane="2" dir="s"/>
    <connection from="73_69" to="69_71" fromLane="3" toLane="0" dir="l"/>