<?xml version="1.0" encoding="UTF-8"?>

<!-- generated on 2025-03-27 01:49:19 by Eclipse SUMO jtrrouter Version 1.21.0
<jtrrouterConfiguration xmlns:xsi="http://www.w3.org/2001/XMLSchema-instance" xsi:noNamespaceSchemaLocation="http://sumo.dlr.de/xsd/jtrrouterConfiguration.xsd">

    <input>
        <net-file value="c:/Users/xyluo25/anaconda3_workspace/001_GitHub/utdf2gmns/datasets/data_bullhead_seg4/utdf_to_sumo/utdf_to_sumo.net.xml"/>
        <route-files value="c:/Users/xyluo25/anaconda3_workspace/001_GitHub/utdf2gmns/datasets/data_bullhead_seg4/utdf_to_sumo/utdf_to_sumo.flow.xml"/>
    </input>

    <output>
        <output-file value="c:/Users/xyluo25/anaconda3_workspace/001_GitHub/utdf2gmns/datasets/data_bullhead_seg4/utdf_to_sumo/utdf_to_sumo.rou.xml"/>
    </output>

    <processing>
        <accept-all-destinations value="true"/>
    </processing>

</jtrrouterConfiguration>
-->

<routes xmlns:xsi="http://www.w3.org/2001/XMLSchema-instance" xsi:noNamespaceSchemaLocation="http://sumo.dlr.de/xsd/routes_file.xsd">
    <vType id="car"/>
    <vehicle id="106_73.0" type="car" depart="32400.00">
        <route edges="106_39 39_73"/>
    </vehicle>
    <vehicle id="106_74.0" type="car" depart="32400.00">
        <route edges="106_39 39_74"/>
    </vehicle>
    <vehicle id="106_75.0" type="car" depart="32400.00">
        <route edges="106_39 39_75"/>
    </vehicle>
    <vehicle id="31_88.0" type="car" depart="32400.00">
        <route edges="31_87 87_88"/>
    </vehicle>
    <vehicle id="31_89.0" type="car" depart="32400.00">
        <route edges="31_87 87_89"/>
    </vehicle>
    <vehicle id="31_98.0" type="car" depart="32400.00">
        <route edges="31_87 87_98"/>
    </vehicle>
    <vehicle id="39_76.0" type="car" depart="32400.00">
        <route edges="39_75 75_76"/>
    </vehicle>
    <vehicle id="39_77.0" type="car" depart="32400.00">
        <route edges="39_75 75_77"/>
    </vehicle>
    <vehicle id="39_78.0" type="car" depart="32400.00">
        <route edges="39_75 75_78"/>
    </vehicle>
    <vehicle id="73_106.0" type="car" depart="32400.00">
        <route edges="73_39 39_106"/>
    </vehicle>
    <vehicle id="73_74.0" type="car" depart="32400.00">
        <route edges="73_39 39_74"/>
    </vehicle>
    <vehicle id="73_75.0" type="car" depart="32400.00">
        <route edges="73_39 39_75"/>
    </vehicle>
    <vehicle id="74_106.0" type="car" depart="32400.00">
        <route edges="74_39 39_106"/>
    </vehicle>
    <vehicle id="74_73.0" type="car" depart="32400.00">
        <route edges="74_39 39_73"/>
    </vehicle>
    <vehicle id="74_75.0" type="car" depart="32400.00">
        <route edges="74_39 39_75"/>
    </vehicle>
    <vehicle id="75_106.0" type="car" depart="32400.00">
        <route edges="75_39 39_106"/>
    </vehicle>
    <vehicle id="75_73.0" type="car" depart="32400.00">
        <route edges="75_39 39_73"/>
    </vehicle>
    <vehicle id="75_74.0" type="car" depart="32400.00">
        <route edges="75_39 39_74"/>
    </vehicle>
    <vehicle id="75_79.0" type="car" depart="32400.00">
        <route edges="75_78 78_79"/>
    </vehicle>
    <vehicle id="75_80.0" type="car" depart="32400.00">
        <route edges="75_78 78_80"/>
    </vehicle>
    <vehicle id="76_39.0" type="car" depart="32400.00">
        <route edges="76_75 75_39"/>
    </vehicle>
    <vehicle id="76_77.0" type="car" depart="32400.00">
        <route edges="76_75 75_77"/>
    </vehicle>
    <vehicle id="76_78.0" type="car" depart="32400.00">
        <route edges="76_75 75_78"/>
    </vehicle>
    <vehicle id="77_39.0" type="car" depart="32400.00">
        <route edges="77_75 75_39"/>
    </vehicle>
    <vehicle id="77_76.0" type="car" depart="32400.00">
        <route edges="77_75 75_76"/>
    </vehicle>
    <vehicle id="77_78.0" type="car" depart="32400.00">
        <route edges="77_75 75_78"/>
    </vehicle>
    <vehicle id="78_39.0" type="car" depart="32400.00">
        <route edges="78_75 75_39"/>
    </vehicle>
    <vehicle id="78_76.0" type="car" depart="32400.00">
        <route edges="78_75 75_76"/>
    </vehicle>
    <vehicle id="78_77.0" type="car" depart="32400.00">
        <route edges="78_75 75_77"/>
    </vehicle>
    <vehicle id="78_81.0" type="car" depart="32400.00">
        <route edges="78_80 80_81"/>
    </vehicle>
    <vehicle id="78_82.0" type="car" depart="32400.00">
        <route edges="78_80 80_82"/>
    </vehicle>
    <vehicle id="79_75.0" type="car" depart="32400.00">
        <route edges="79_78 78_75"/>
    </vehicle>
    <vehicle id="79_80.0" type="car" depart="32400.00">
        <route edges="79_78 78_80"/>
    </vehicle>
    <vehicle id="80_75.0" type="car" depart="32400.00">
        <route edges="80_78 78_75"/>
    </vehicle>
    <vehicle id="80_79.0" type="car" depart="32400.00">
        <route edges="80_78 78_79"/>
    </vehicle>
    <vehicle id="80_83.0" type="car" depart="32400.00">
        <route edges="80_82 82_83"/>
    </vehicle>
    <vehicle id="80_84.0" type="car" depart="32400.00">
        <route edges="80_82 82_84"/>
    </vehicle>
    <vehicle id="81_78.0" type="car" depart="32400.00">
        <route edges="81_80 80_78"/>
    </vehicle>
    <vehicle id="81_82.0" type="car" depart="32400.00">
        <route edges="81_80 80_82"/>
    </vehicle>
    <vehicle id="82_78.0" type="car" depart="32400.00">
        <route edges="82_80 80_78"/>
    </vehicle>
    <vehicle id="82_81.0" type="car" depart="32400.00">
        <route edges="82_80 80_81"/>
    </vehicle>
    <vehicle id="82_85.0" type="car" depart="32400.00">
        <route edges="82_84 84_85"/>
    </vehicle>
    <vehicle id="82_86.0" type="car" depart="32400.00">
        <route edges="82_84 84_86"/>
    </vehicle>
    <vehicle id="82_98.0" type="car" depart="32400.00">
        <route edges="82_84 84_98"/>
    </vehicle>
    <vehicle id="83_80.0" type="car" depart="32400.00">
        <route edges="83_82 82_80"/>
    </vehicle>
    <vehicle id="83_84.0" type="car" depart="32400.00">
        <route edges="83_82 82_84"/>
    </vehicle>
    <vehicle id="84_80.0" type="car" depart="32400.00">
        <route edges="84_82 82_80"/>
    </vehicle>
    <vehicle id="84_83.0" type="car" depart="32400.00">
        <route edges="84_82 82_83"/>
    </vehicle>
    <vehicle id="84_87.0" type="car" depart="32400.00">
        <route edges="84_98 98_87"/>
    </vehicle>
    <vehicle id="84_97.0" type="car" depart="32400.00">
        <route edges="84_98 98_97"/>
    </vehicle>
    <vehicle id="85_82.0" type="car" depart="32400.00">
        <route edges="85_84 84_82"/>
    </vehicle>
    <vehicle id="85_86.0" type="car" depart="32400.00">
        <route edges="85_84 84_86"/>
    </vehicle>
    <vehicle id="85_98.0" type="car" depart="32400.00">
        <route edges="85_84 84_98"/>
    </vehicle>
    <vehicle id="86_82.0" type="car" depart="32400.00">
        <route edges="86_84 84_82"/>
    </vehicle>
    <vehicle id="86_85.0" type="car" depart="32400.00">
        <route edges="86_84 84_85"/>
    </vehicle>
    <vehicle id="86_98.0" type="car" depart="32400.00">
        <route edges="86_84 84_98"/>
    </vehicle>
    <vehicle id="87_84.0" type="car" depart="32400.00">
        <route edges="87_98 98_84"/>
    </vehicle>
    <vehicle id="87_97.0" type="car" depart="32400.00">
        <route edges="87_98 98_97"/>
    </vehicle>
    <vehicle id="88_31.0" type="car" depart="32400.00">
        <route edges="88_87 87_31"/>
    </vehicle>
    <vehicle id="88_89.0" type="car" depart="32400.00">
        <route edges="88_87 87_89"/>
    </vehicle>
    <vehicle id="88_98.0" type="car" depart="32400.00">
        <route edges="88_87 87_98"/>
    </vehicle>
    <vehicle id="89_31.0" type="car" depart="32400.00">
        <route edges="89_87 87_31"/>
    </vehicle>
    <vehicle id="89_88.0" type="car" depart="32400.00">
        <route edges="89_87 87_88"/>
    </vehicle>
    <vehicle id="89_98.0" type="car" depart="32400.00">
        <route edges="89_87 87_98"/>
    </vehicle>
    <vehicle id="97_84.0" type="car" depart="32400.00">
        <route edges="97_98 98_84"/>
    </vehicle>
    <vehicle id="97_87.0" type="car" depart="32400.00">
        <route edges="97_98 98_87"/>
    </vehicle>
    <vehicle id="98_31.0" type="car" depart="32400.00">
        <route edges="98_87 87_31"/>
    </vehicle>
    <vehicle id="98_82.0" type="car" depart="32400.00">
        <route edges="98_84 84_82"/>
    </vehicle>
    <vehicle id="98_85.0" type="car" depart="32400.00">
        <route edges="98_84 84_85"/>
    </vehicle>
    <vehicle id="98_86.0" type="car" depart="32400.00">
        <route edges="98_84 84_86"/>
    </vehicle>
    <vehicle id="98_88.0" type="car" depart="32400.00">
        <route edges="98_87 87_88"/>
    </vehicle>
    <vehicle id="98_89.0" type="car" depart="32400.00">
        <route edges="98_87 87_89"/>
    </vehicle>
    <vehicle id="75_106.1" type="car" depart="32400.47">
        <route edges="75_39 39_106"/>
    </vehicle>
    <vehicle id="106_75.1" type="car" depart="32400.73">
        <route edges="106_39 39_75"/>
    </vehicle>
    <vehicle id="75_106.2" type="car" depart="32400.93">
        <route edges="75_39 39_106"/>
    </vehicle>
    <vehicle id="75_106.3" type="car" depart="32401.40">
        <route edges="75_39 39_106"/>
    </vehicle>
    <vehicle id="106_75.2" type="car" depart="32401.45">
        <route edges="106_39 39_75"/>
    </vehicle>
    <vehicle id="75_106.4" type="car" depart="32401.86">
        <route edges="75_39 39_106"/>
    </vehicle>
    <vehicle id="106_75.3" type="car" depart="32402.18">
        <route edges="106_39 39_75"/>
    </vehicle>
    <vehicle id="75_106.5" type="car" depart="32402.33">
        <route edges="75_39 39_106"/>
    </vehicle>
    <vehicle id="80_75.1" type="car" depart="32402.34">
        <route edges="80_78 78_75"/>
    </vehicle>
    <vehicle id="84_80.1" type="car" depart="32402.57">
        <route edges="84_82 82_80"/>
    </vehicle>
    <vehicle id="75_106.6" type="car" depart="32402.79">
        <route edges="75_39 39_106"/>
    </vehicle>
    <vehicle id="106_75.4" type="car" depart="32402.90">
        <route edges="106_39 39_75"/>
    </vehicle>
    <vehicle id="75_80.1" type="car" depart="32403.06">
        <route edges="75_78 78_80"/>
    </vehicle>
    <vehicle id="75_106.7" type="car" depart="32403.26">
        <route edges="75_39 39_106"/>
    </vehicle>
    <vehicle id="80_84.1" type="car" depart="32403.35">
        <route edges="80_82 82_84"/>
    </vehicle>
    <vehicle id="82_78.1" type="car" depart="32403.39">
        <route edges="82_80 80_78"/>
    </vehicle>
    <vehicle id="106_75.5" type="car" depart="32403.63">
        <route edges="106_39 39_75"/>
    </vehicle>
    <vehicle id="75_106.8" type="car" depart="32403.72">
        <route edges="75_39 39_106"/>
    </vehicle>
    <vehicle id="75_106.9" type="car" depart="32404.19">
        <route edges="75_39 39_106"/>
    </vehicle>
    <vehicle id="106_75.6" type="car" depart="32404.35">
        <route edges="106_39 39_75"/>
    </vehicle>
    <vehicle id="75_106.10" type="car" depart="32404.65">
        <route edges="75_39 39_106"/>
    </vehicle>
    <vehicle id="80_75.2" type="car" depart="32404.69">
        <route edges="80_78 78_75"/>
    </vehicle>
    <vehicle id="98_82.1" type="car" depart="32404.83">
        <route edges="98_84 84_82"/>
    </vehicle>
    <vehicle id="87_84.1" type="car" depart="32404.93">
        <route edges="87_98 98_84"/>
    </vehicle>
    <vehicle id="31_98.1" type="car" depart="32405.01">
        <route edges="31_87 87_98"/>
    </vehicle>
    <vehicle id="78_82.1" type="car" depart="32405.06">
        <route edges="78_80 80_82"/>
    </vehicle>
    <vehicle id="106_75.7" type="car" depart="32405.08">
        <route edges="106_39 39_75"/>
    </vehicle>
    <vehicle id="75_106.11" type="car" depart="32405.12">
        <route edges="75_39 39_106"/>
    </vehicle>
    <vehicle id="84_80.2" type="car" depart="32405.13">
        <route edges="84_82 82_80"/>
    </vehicle>
    <vehicle id="78_39.1" type="car" depart="32405.55">
        <route edges="78_75 75_39"/>
    </vehicle>
    <vehicle id="75_106.12" type="car" depart="32405.58">
        <route edges="75_39 39_106"/>
    </vehicle>
    <vehicle id="106_75.8" type="car" depart="32405.80">
        <route edges="106_39 39_75"/>
    </vehicle>
    <vehicle id="75_106.13" type="car" depart="32406.05">
        <route edges="75_39 39_106"/>
    </vehicle>
    <vehicle id="75_80.2" type="car" depart="32406.13">
        <route edges="75_78 78_80"/>
    </vehicle>
    <vehicle id="74_75.1" type="car" depart="32406.21">
        <route edges="74_39 39_75"/>
    </vehicle>
    <vehicle id="84_87.1" type="car" depart="32406.45">
        <route edges="84_98 98_87"/>
    </vehicle>
    <vehicle id="75_106.14" type="car" depart="32406.51">
        <route edges="75_39 39_106"/>
    </vehicle>
    <vehicle id="106_75.9" type="car" depart="32406.53">
        <route edges="106_39 39_75"/>
    </vehicle>
    <vehicle id="82_98.1" type="car" depart="32406.62">
        <route edges="82_84 84_98"/>
    </vehicle>
    <vehicle id="39_78.1" type="car" depart="32406.65">
        <route edges="39_75 75_78"/>
    </vehicle>
    <vehicle id="80_84.2" type="car" depart="32406.70">
        <route edges="80_82 82_84"/>
    </vehicle>
    <vehicle id="82_78.2" type="car" depart="32406.77">
        <route edges="82_80 80_78"/>
    </vehicle>
    <vehicle id="75_106.15" type="car" depart="32406.98">
        <route edges="75_39 39_106"/>
    </vehicle>
    <vehicle id="80_75.3" type="car" depart="32407.03">
        <route edges="80_78 78_75"/>
    </vehicle>
    <vehicle id="106_75.10" type="car" depart="32407.25">
        <route edges="106_39 39_75"/>
    </vehicle>
    <vehicle id="75_106.16" type="car" depart="32407.44">
        <route edges="75_39 39_106"/>
    </vehicle>
    <vehicle id="98_31.1" type="car" depart="32407.45">
        <route edges="98_87 87_31"/>
    </vehicle>
    <vehicle id="84_80.3" type="car" depart="32407.70">
        <route edges="84_82 82_80"/>
    </vehicle>
    <vehicle id="75_106.17" type="car" depart="32407.91">
        <route edges="75_39 39_106"/>
    </vehicle>
    <vehicle id="106_75.11" type="car" depart="32407.98">
        <route edges="106_39 39_75"/>
    </vehicle>
    <vehicle id="75_106.18" type="car" depart="32408.37">
        <route edges="75_39 39_106"/>
    </vehicle>
    <vehicle id="106_75.12" type="car" depart="32408.70">
        <route edges="106_39 39_75"/>
    </vehicle>
    <vehicle id="75_106.19" type="car" depart="32408.84">
        <route edges="75_39 39_106"/>
    </vehicle>
    <vehicle id="75_80.3" type="car" depart="32409.19">
        <route edges="75_78 78_80"/>
    </vehicle>
    <vehicle id="75_106.20" type="car" depart="32409.30">
        <route edges="75_39 39_106"/>
    </vehicle>
    <vehicle id="80_75.4" type="car" depart="32409.37">
        <route edges="80_78 78_75"/>
    </vehicle>
    <vehicle id="106_75.13" type="car" depart="32409.43">
        <route edges="106_39 39_75"/>
    </vehicle>
    <vehicle id="98_82.2" type="car" depart="32409.66">
        <route edges="98_84 84_82"/>
    </vehicle>
    <vehicle id="75_106.21" type="car" depart="32409.77">
        <route edges="75_39 39_106"/>
    </vehicle>
    <vehicle id="87_84.2" type="car" depart="32409.86">
        <route edges="87_98 98_84"/>
    </vehicle>
    <vehicle id="31_98.2" type="car" depart="32410.03">
        <route edges="31_87 87_98"/>
    </vehicle>
    <vehicle id="80_84.3" type="car" depart="32410.05">
        <route edges="80_82 82_84"/>
    </vehicle>
    <vehicle id="78_82.2" type="car" depart="32410.11">
        <route edges="78_80 80_82"/>
    </vehicle>
    <vehicle id="106_75.14" type="car" depart="32410.15">
        <route edges="106_39 39_75"/>
    </vehicle>
    <vehicle id="82_78.3" type="car" depart="32410.16">
        <route edges="82_80 80_78"/>
    </vehicle>
    <vehicle id="75_106.22" type="car" depart="32410.23">
        <route edges="75_39 39_106"/>
    </vehicle>
    <vehicle id="84_80.4" type="car" depart="32410.27">
        <route edges="84_82 82_80"/>
    </vehicle>
    <vehicle id="75_106.23" type="car" depart="32410.70">
        <route edges="75_39 39_106"/>
    </vehicle>
    <vehicle id="106_75.15" type="car" depart="32410.88">
        <route edges="106_39 39_75"/>
    </vehicle>
    <vehicle id="78_39.2" type="car" depart="32411.09">
        <route edges="78_75 75_39"/>
    </vehicle>
    <vehicle id="75_106.24" type="car" depart="32411.16">
        <route edges="75_39 39_106"/>
    </vehicle>
    <vehicle id="74_106.1" type="car" depart="32411.43">
        <route edges="74_39 39_106"/>
    </vehicle>
    <vehicle id="106_75.16" type="car" depart="32411.60">
        <route edges="106_39 39_75"/>
    </vehicle>
    <vehicle id="75_106.25" type="car" depart="32411.63">
        <route edges="75_39 39_106"/>
    </vehicle>
    <vehicle id="80_75.5" type="car" depart="32411.72">
        <route edges="80_78 78_75"/>
    </vehicle>
    <vehicle id="75_74.1" type="car" depart="32412.00">
        <route edges="75_39 39_74"/>
    </vehicle>
    <vehicle id="75_106.26" type="car" depart="32412.09">
        <route edges="75_39 39_106"/>
    </vehicle>
    <vehicle id="75_80.4" type="car" depart="32412.25">
        <route edges="75_78 78_80"/>
    </vehicle>
    <vehicle id="106_75.17" type="car" depart="32412.33">
        <route edges="106_39 39_75"/>
    </vehicle>
    <vehicle id="74_75.2" type="car" depart="32412.41">
        <route edges="74_39 39_75"/>
    </vehicle>
    <vehicle id="75_106.27" type="car" depart="32412.56">
        <route edges="75_39 39_106"/>
    </vehicle>
    <vehicle id="84_80.5" type="car" depart="32412.84">
        <route edges="84_82 82_80"/>
    </vehicle>
    <vehicle id="84_87.2" type="car" depart="32412.90">
        <route edges="84_98 98_87"/>
    </vehicle>
    <vehicle id="75_106.28" type="car" depart="32413.02">
        <route edges="75_39 39_106"/>
    </vehicle>
    <vehicle id="106_75.18" type="car" depart="32413.05">
        <route edges="106_39 39_75"/>
    </vehicle>
    <vehicle id="82_98.2" type="car" depart="32413.23">
        <route edges="82_84 84_98"/>
    </vehicle>
    <vehicle id="39_78.2" type="car" depart="32413.31">
        <route edges="39_75 75_78"/>
    </vehicle>
    <vehicle id="80_84.4" type="car" depart="32413.40">
        <route edges="80_82 82_84"/>
    </vehicle>
    <vehicle id="75_106.29" type="car" depart="32413.49">
        <route edges="75_39 39_106"/>
    </vehicle>
    <vehicle id="82_78.4" type="car" depart="32413.54">
        <route edges="82_80 80_78"/>
    </vehicle>
    <vehicle id="106_75.19" type="car" depart="32413.78">
        <route edges="106_39 39_75"/>
    </vehicle>
    <vehicle id="75_106.30" type="car" depart="32413.95">
        <route edges="75_39 39_106"/>
    </vehicle>
    <vehicle id="80_75.6" type="car" depart="32414.06">
        <route edges="80_78 78_75"/>
    </vehicle>
    <vehicle id="75_106.31" type="car" depart="32414.42">
        <route edges="75_39 39_106"/>
    </vehicle>
    <vehicle id="98_82.3" type="car" depart="32414.50">
        <route edges="98_84 84_82"/>
    </vehicle>
    <vehicle id="106_75.20" type="car" depart="32414.50">
        <route edges="106_39 39_75"/>
    </vehicle>
    <vehicle id="87_84.3" type="car" depart="32414.79">
        <route edges="87_98 98_84"/>
    </vehicle>
    <vehicle id="75_106.32" type="car" depart="32414.88">
        <route edges="75_39 39_106"/>
    </vehicle>
    <vehicle id="98_31.2" type="car" depart="32414.91">
        <route edges="98_87 87_31"/>
    </vehicle>
    <vehicle id="31_98.3" type="car" depart="32415.04">
        <route edges="31_87 87_98"/>
    </vehicle>
    <vehicle id="78_82.3" type="car" depart="32415.17">
        <route edges="78_80 80_82"/>
    </vehicle>
    <vehicle id="106_75.21" type="car" depart="32415.23">
        <route edges="106_39 39_75"/>
    </vehicle>
    <vehicle id="75_80.5" type="car" depart="32415.32">
        <route edges="75_78 78_80"/>
    </vehicle>
    <vehicle id="75_106.33" type="car" depart="32415.35">
        <route edges="75_39 39_106"/>
    </vehicle>
    <vehicle id="84_80.6" type="car" depart="32415.40">
        <route edges="84_82 82_80"/>
    </vehicle>
    <vehicle id="75_106.34" type="car" depart="32415.81">
        <route edges="75_39 39_106"/>
    </vehicle>
    <vehicle id="106_75.22" type="car" depart="32415.95">
        <route edges="106_39 39_75"/>
    </vehicle>
    <vehicle id="75_106.35" type="car" depart="32416.28">
        <route edges="75_39 39_106"/>
    </vehicle>
    <vehicle id="80_75.7" type="car" depart="32416.40">
        <route edges="80_78 78_75"/>
    </vehicle>
    <vehicle id="78_39.3" type="car" depart="32416.64">
        <route edges="78_75 75_39"/>
    </vehicle>
    <vehicle id="106_75.23" type="car" depart="32416.68">
        <route edges="106_39 39_75"/>
    </vehicle>
    <vehicle id="75_106.36" type="car" depart="32416.74">
        <route edges="75_39 39_106"/>
    </vehicle>
    <vehicle id="80_84.5" type="car" depart="32416.76">
        <route edges="80_82 82_84"/>
    </vehicle>
    <vehicle id="106_74.1" type="car" depart="32416.82">
        <route edges="106_39 39_74"/>
    </vehicle>
    <vehicle id="82_78.5" type="car" depart="32416.93">
        <route edges="82_80 80_78"/>
    </vehicle>
    <vehicle id="75_106.37" type="car" depart="32417.21">
        <route edges="75_39 39_106"/>
    </vehicle>
    <vehicle id="106_75.24" type="car" depart="32417.40">
        <route edges="106_39 39_75"/>
    </vehicle>
    <vehicle id="75_106.38" type="car" depart="32417.67">
        <route edges="75_39 39_106"/>
    </vehicle>
    <vehicle id="84_80.7" type="car" depart="32417.97">
        <route edges="84_82 82_80"/>
    </vehicle>
    <vehicle id="106_75.25" type="car" depart="32418.13">
        <route edges="106_39 39_75"/>
    </vehicle>
    <vehicle id="75_106.39" type="car" depart="32418.14">
        <route edges="75_39 39_106"/>
    </vehicle>
    <vehicle id="75_80.6" type="car" depart="32418.38">
        <route edges="75_78 78_80"/>
    </vehicle>
    <vehicle id="75_106.40" type="car" depart="32418.60">
        <route edges="75_39 39_106"/>
    </vehicle>
    <vehicle id="74_75.3" type="car" depart="32418.62">
        <route edges="74_39 39_75"/>
    </vehicle>
    <vehicle id="83_80.1" type="car" depart="32418.65">
        <route edges="83_82 82_80"/>
    </vehicle>
    <vehicle id="80_75.8" type="car" depart="32418.74">
        <route edges="80_78 78_75"/>
    </vehicle>
    <vehicle id="106_75.26" type="car" depart="32418.85">
        <route edges="106_39 39_75"/>
    </vehicle>
    <vehicle id="75_106.41" type="car" depart="32419.07">
        <route edges="75_39 39_106"/>
    </vehicle>
    <vehicle id="98_82.4" type="car" depart="32419.33">
        <route edges="98_84 84_82"/>
    </vehicle>
    <vehicle id="84_87.3" type="car" depart="32419.35">
        <route edges="84_98 98_87"/>
    </vehicle>
    <vehicle id="75_106.42" type="car" depart="32419.53">
        <route edges="75_39 39_106"/>
    </vehicle>
    <vehicle id="106_75.27" type="car" depart="32419.58">
        <route edges="106_39 39_75"/>
    </vehicle>
    <vehicle id="87_84.4" type="car" depart="32419.72">
        <route edges="87_98 98_84"/>
    </vehicle>
    <vehicle id="73_106.1" type="car" depart="32419.78">
        <route edges="73_39 39_106"/>
    </vehicle>
    <vehicle id="82_98.3" type="car" depart="32419.85">
        <route edges="82_84 84_98"/>
    </vehicle>
    <vehicle id="75_73.1" type="car" depart="32419.89">
        <route edges="75_39 39_73"/>
    </vehicle>
    <vehicle id="39_78.3" type="car" depart="32419.96">
        <route edges="39_75 75_78"/>
    </vehicle>
    <vehicle id="75_106.43" type="car" depart="32420.00">
        <route edges="75_39 39_106"/>
    </vehicle>
    <vehicle id="31_98.4" type="car" depart="32420.05">
        <route edges="31_87 87_98"/>
    </vehicle>
    <vehicle id="80_84.6" type="car" depart="32420.11">
        <route edges="80_82 82_84"/>
    </vehicle>
    <vehicle id="78_82.4" type="car" depart="32420.22">
        <route edges="78_80 80_82"/>
    </vehicle>
    <vehicle id="106_75.28" type="car" depart="32420.30">
        <route edges="106_39 39_75"/>
    </vehicle>
    <vehicle id="82_78.6" type="car" depart="32420.32">
        <route edges="82_80 80_78"/>
    </vehicle>
    <vehicle id="75_106.44" type="car" depart="32420.46">
        <route edges="75_39 39_106"/>
    </vehicle>
    <vehicle id="84_80.8" type="car" depart="32420.54">
        <route edges="84_82 82_80"/>
    </vehicle>
    <vehicle id="79_75.1" type="car" depart="32420.57">
        <route edges="79_78 78_75"/>
    </vehicle>
    <vehicle id="75_106.45" type="car" depart="32420.93">
        <route edges="75_39 39_106"/>
    </vehicle>
    <vehicle id="106_75.29" type="car" depart="32421.03">
        <route edges="106_39 39_75"/>
    </vehicle>
    <vehicle id="80_75.9" type="car" depart="32421.09">
        <route edges="80_78 78_75"/>
    </vehicle>
    <vehicle id="75_106.46" type="car" depart="32421.39">
        <route edges="75_39 39_106"/>
    </vehicle>
    <vehicle id="75_80.7" type="car" depart="32421.44">
        <route edges="75_78 78_80"/>
    </vehicle>
    <vehicle id="106_75.30" type="car" depart="32421.75">
        <route edges="106_39 39_75"/>
    </vehicle>
    <vehicle id="75_106.47" type="car" depart="32421.86">
        <route edges="75_39 39_106"/>
    </vehicle>
    <vehicle id="78_39.4" type="car" depart="32422.18">
        <route edges="78_75 75_39"/>
    </vehicle>
    <vehicle id="75_106.48" type="car" depart="32422.32">
        <route edges="75_39 39_106"/>
    </vehicle>
    <vehicle id="98_31.3" type="car" depart="32422.36">
        <route edges="98_87 87_31"/>
    </vehicle>
    <vehicle id="106_75.31" type="car" depart="32422.48">
        <route edges="106_39 39_75"/>
    </vehicle>
    <vehicle id="75_106.49" type="car" depart="32422.79">
        <route edges="75_39 39_106"/>
    </vehicle>
    <vehicle id="74_106.2" type="car" depart="32422.86">
        <route edges="74_39 39_106"/>
    </vehicle>
    <vehicle id="84_80.9" type="car" depart="32423.10">
        <route edges="84_82 82_80"/>
    </vehicle>
    <vehicle id="106_75.32" type="car" depart="32423.20">
        <route edges="106_39 39_75"/>
    </vehicle>
    <vehicle id="75_106.50" type="car" depart="32423.25">
        <route edges="75_39 39_106"/>
    </vehicle>
    <vehicle id="80_75.10" type="car" depart="32423.43">
        <route edges="80_78 78_75"/>
    </vehicle>
    <vehicle id="80_84.7" type="car" depart="32423.46">
        <route edges="80_82 82_84"/>
    </vehicle>
    <vehicle id="82_78.7" type="car" depart="32423.70">
        <route edges="82_80 80_78"/>
    </vehicle>
    <vehicle id="75_106.51" type="car" depart="32423.72">
        <route edges="75_39 39_106"/>
    </vehicle>
    <vehicle id="106_75.33" type="car" depart="32423.93">
        <route edges="106_39 39_75"/>
    </vehicle>
    <vehicle id="75_74.2" type="car" depart="32424.00">
        <route edges="75_39 39_74"/>
    </vehicle>
    <vehicle id="98_82.5" type="car" depart="32424.16">
        <route edges="98_84 84_82"/>
    </vehicle>
    <vehicle id="75_106.52" type="car" depart="32424.18">
        <route edges="75_39 39_106"/>
    </vehicle>
    <vehicle id="75_80.8" type="car" depart="32424.50">
        <route edges="75_78 78_80"/>
    </vehicle>
    <vehicle id="75_106.53" type="car" depart="32424.65">
        <route edges="75_39 39_106"/>
    </vehicle>
    <vehicle id="106_75.34" type="car" depart="32424.65">
        <route edges="106_39 39_75"/>
    </vehicle>
    <vehicle id="87_84.5" type="car" depart="32424.66">
        <route edges="87_98 98_84"/>
    </vehicle>
    <vehicle id="74_75.4" type="car" depart="32424.82">
        <route edges="74_39 39_75"/>
    </vehicle>
    <vehicle id="31_98.5" type="car" depart="32425.07">
        <route edges="31_87 87_98"/>
    </vehicle>
    <vehicle id="75_106.54" type="car" depart="32425.11">
        <route edges="75_39 39_106"/>
    </vehicle>
    <vehicle id="73_75.1" type="car" depart="32425.17">
        <route edges="73_39 39_75"/>
    </vehicle>
    <vehicle id="78_82.5" type="car" depart="32425.28">
        <route edges="78_80 80_82"/>
    </vehicle>
    <vehicle id="106_75.35" type="car" depart="32425.38">
        <route edges="106_39 39_75"/>
    </vehicle>
    <vehicle id="75_106.55" type="car" depart="32425.58">
        <route edges="75_39 39_106"/>
    </vehicle>
    <vehicle id="84_80.10" type="car" depart="32425.67">
        <route edges="84_82 82_80"/>
    </vehicle>
    <vehicle id="74_73.1" type="car" depart="32425.71">
        <route edges="74_39 39_73"/>
    </vehicle>
    <vehicle id="80_75.11" type="car" depart="32425.77">
        <route edges="80_78 78_75"/>
    </vehicle>
    <vehicle id="84_87.4" type="car" depart="32425.80">
        <route edges="84_98 98_87"/>
    </vehicle>
    <vehicle id="75_106.56" type="car" depart="32426.04">
        <route edges="75_39 39_106"/>
    </vehicle>
    <vehicle id="106_75.36" type="car" depart="32426.10">
        <route edges="106_39 39_75"/>
    </vehicle>
    <vehicle id="82_98.4" type="car" depart="32426.47">
        <route edges="82_84 84_98"/>
    </vehicle>
    <vehicle id="75_106.57" type="car" depart="32426.51">
        <route edges="75_39 39_106"/>
    </vehicle>
    <vehicle id="39_78.4" type="car" depart="32426.62">
        <route edges="39_75 75_78"/>
    </vehicle>
    <vehicle id="80_84.8" type="car" depart="32426.81">
        <route edges="80_82 82_84"/>
    </vehicle>
    <vehicle id="106_75.37" type="car" depart="32426.83">
        <route edges="106_39 39_75"/>
    </vehicle>
    <vehicle id="75_106.58" type="car" depart="32426.97">
        <route edges="75_39 39_106"/>
    </vehicle>