<?xml version='1.0' encoding='utf-8'?>
<net xmlns:xsi="http://www.w3.org/2001/XMLSchema-instance" version="1.20" junctionCornerDetail="5" limitTurnSpeed="5.50" xsi:noNamespaceSchemaLocation="http://sumo.dlr.de/xsd/net_file.xsd">

    <location netOffset="-719065.61,-3871928.75" convBoundary="0.00,0.00,322.93,6670.67" origBoundary="719065.61,3871928.75,719388.54,3878599.42" projParameter="!" />

    <edge id=":106_0" function="internal">
        <lane id=":106_0_0" index="0" speed="3.65" length="4.67" shape="65.50,6670.81 64.60,6671.93 63.77,6672.27 63.01,6671.80 62.31,6670.54" />
    </edge>
    <edge id=":31_0" function="internal">
        <lane id=":31_0_0" index="0" speed="3.65" length="4.67" shape="216.08,-0.04 216.90,-1.22 217.71,-1.60 218.50,-1.18 219.27,0.04" />
    </edge>
    <edge id=":39_0" function="internal">
        <lane id=":39_0_0" index="0" speed="7.91" length="13.05" shape="80.13,6642.28 77.55,6642.87 75.58,6644.70 74.24,6647.77 73.51,6652.07" />
    </edge>
    <edge id=":39_1" function="internal">
        <lane id=":39_1_0" index="0" speed="45.00" length="27.35" shape="80.13,6642.28 75.16,6642.73 68.37,6643.76 60.63,6644.78 52.85,6645.20" />
        <lane id=":39_1_1" index="1" speed="45.00" length="27.35" shape="80.13,6642.28 52.89,6642.00" />
    </edge>
    <edge id=":39_3" function="internal">
        <lane id=":39_3_0" index="0" speed="9.82" length="6.27" shape="80.13,6642.28 73.91,6641.51" />
    </edge>
    <edge id=":39_4" function="internal">
        <lane id=":39_4_0" index="0" speed="3.65" length="1.44" shape="80.13,6642.28 78.94,6641.47" />
    </edge>
    <edge id=":39_22" function="internal">
        <lane id=":39_22_0" index="0" speed="9.82" length="15.85" shape="73.91,6641.51 73.45,6641.45 68.72,6639.13 65.94,6635.31 65.10,6629.99" />
    </edge>
    <edge id=":39_23" function="internal">
        <lane id=":39_23_0" index="0" speed="3.65" length="3.23" shape="78.94,6641.47 78.54,6640.66 78.95,6639.87 80.16,6639.08" />
    </edge>
    <edge id=":39_5" function="internal">
        <lane id=":39_5_0" index="0" speed="6.48" length="9.03" shape="74.70,6630.20 74.99,6632.67 76.01,6634.43 77.74,6635.50 80.19,6635.88" />
    </edge>
    <edge id=":39_6" function="internal">
        <lane id=":39_6_0" index="0" speed="45.00" length="21.70" shape="74.70,6630.20 73.51,6652.07" />
        <lane id=":39_6_1" index="1" speed="45.00" length="21.70" shape="71.50,6630.13 70.32,6651.80" />
        <lane id=":39_6_2" index="2" speed="45.00" length="21.70" shape="68.30,6630.06 67.14,6651.53" />
    </edge>
    <edge id=":39_9" function="internal">
        <lane id=":39_9_0" index="0" speed="9.91" length="4.90" shape="68.30,6630.06 67.33,6634.86" />
    </edge>
    <edge id=":39_10" function="internal">
        <lane id=":39_10_0" index="0" speed="3.65" length="1.44" shape="68.30,6630.06 67.47,6631.24" />
    </edge>
    <edge id=":39_24" function="internal">
        <lane id=":39_24_0" index="0" speed="9.91" length="17.20" shape="67.33,6634.86 67.23,6635.34 64.31,6639.10 59.53,6641.32 52.89,6642.00" />
    </edge>
    <edge id=":39_25" function="internal">
        <lane id=":39_25_0" index="0" speed="3.65" length="3.23" shape="67.47,6631.24 66.66,6631.62 65.87,6631.20 65.10,6629.99" />
    </edge>
    <edge id=":39_11" function="internal">
        <lane id=":39_11_0" index="0" speed="7.42" length="11.94" shape="52.92,6638.80 55.37,6638.26 57.15,6636.59 58.26,6633.78 58.70,6629.84" />
    </edge>
    <edge id=":39_12" function="internal">
        <lane id=":39_12_0" index="0" speed="45.00" length="27.35" shape="52.92,6638.80 57.88,6638.35 64.68,6637.32 72.41,6636.30 80.19,6635.88" />
        <lane id=":39_12_1" index="1" speed="45.00" length="27.35" shape="52.92,6638.80 80.16,6639.08" />
    </edge>
    <edge id=":39_14" function="internal">
        <lane id=":39_14_0" index="0" speed="9.60" length="5.98" shape="52.92,6638.80 58.85,6639.57" />
    </edge>
    <edge id=":39_15" function="internal">
        <lane id=":39_15_0" index="0" speed="3.65" length="1.44" shape="52.92,6638.80 54.11,6639.62" />
    </edge>
    <edge id=":39_26" function="internal">
        <lane id=":39_26_0" index="0" speed="9.60" length="16.09" shape="58.85,6639.57 59.54,6639.66 64.11,6642.06 66.65,6646.02 67.14,6651.53" />
    </edge>
    <edge id=":39_27" function="internal">
        <lane id=":39_27_0" index="0" speed="3.65" length="3.23" shape="54.11,6639.62 54.50,6640.42 54.09,6641.22 52.89,6642.00" />
    </edge>
    <edge id=":39_16" function="internal">
        <lane id=":39_16_0" index="0" speed="7.00" length="11.23" shape="60.76,6650.99 60.45,6648.49 59.02,6646.69 56.49,6645.60 52.85,6645.20" />
    </edge>
    <edge id=":39_17" function="internal">
        <lane id=":39_17_0" index="0" speed="45.00" length="21.39" shape="60.76,6650.99 60.76,6644.98 59.96,6640.66 59.04,6636.23 58.70,6629.84" />
        <lane id=":39_17_1" index="1" speed="45.00" length="21.39" shape="63.95,6651.26 63.95,6645.23 63.15,6640.87 62.24,6636.37 61.90,6629.91" />
        <lane id=":39_17_2" index="2" speed="45.00" length="21.39" shape="63.95,6651.26 65.10,6629.99" />
    </edge>
    <edge id=":39_20" function="internal">
        <lane id=":39_20_0" index="0" speed="10.28" length="3.59" shape="63.95,6651.26 64.85,6647.79" />
    </edge>
    <edge id=":39_21" function="internal">
        <lane id=":39_21_0" index="0" speed="3.65" length="1.44" shape="63.95,6651.26 64.85,6650.14" />
    </edge>
    <edge id=":39_28" function="internal">
        <lane id=":39_28_0" index="0" speed="10.28" length="19.12" shape="64.85,6647.79 65.35,6645.88 68.52,6642.05 73.46,6639.78 80.16,6639.08" />
    </edge>
    <edge id=":39_29" function="internal">
        <lane id=":39_29_0" index="0" speed="3.65" length="3.23" shape="64.85,6650.14 65.68,6649.80 66.44,6650.27 67.14,6651.53" />
    </edge>
    <edge id=":73_0" function="internal">
        <lane id=":73_0_0" index="0" speed="3.65" length="4.67" shape="-0.02,6641.46 -1.21,6640.65 -1.60,6639.84 -1.19,6639.05 0.02,6638.26" />
    </edge>
    <edge id=":74_0" function="internal">
        <lane id=":74_0_0" index="0" speed="3.65" length="4.67" shape="152.45,6639.79 153.64,6640.61 154.04,6641.41 153.63,6642.21 152.42,6642.99" />
    </edge>
    <edge id=":75_0" function="internal">
        <lane id=":75_0_0" index="0" speed="7.35" length="11.77" shape="100.73,5732.64 98.26,5733.14 96.46,5734.76 95.34,5737.49 94.90,5741.34" />
    </edge>
    <edge id=":75_1" function="internal">
        <lane id=":75_1_0" index="0" speed="45.00" length="27.34" shape="100.73,5732.64 95.76,5733.04 88.95,5734.00 81.21,5734.93 73.43,5735.25" />
        <lane id=":75_1_1" index="1" speed="45.00" length="27.34" shape="100.73,5732.64 73.50,5732.05" />
    </edge>
    <edge id=":75_3" function="internal">
        <lane id=":75_3_0" index="0" speed="9.83" length="6.42" shape="100.73,5732.64 94.37,5731.79" />
    </edge>
    <edge id=":75_4" function="internal">
        <lane id=":75_4_0" index="0" speed="3.65" length="1.44" shape="100.73,5732.64 99.55,5731.81" />
    </edge>
    <edge id=":75_22" function="internal">
        <lane id=":75_22_0" index="0" speed="9.83" length="15.61" shape="94.37,5731.79 94.09,5731.76 89.38,5729.41 86.61,5725.59 85.78,5720.31" />
    </edge>
    <edge id=":75_23" function="internal">
        <lane id=":75_23_0" index="0" speed="3.65" length="3.23" shape="99.55,5731.81 99.16,5731.01 99.58,5730.21 100.79,5729.44" />
    </edge>
    <edge id=":75_5" function="internal">
        <lane id=":75_5_0" index="0" speed="6.50" length="9.03" shape="95.38,5720.53 95.67,5722.98 96.68,5724.76 98.41,5725.84 100.85,5726.24" />
    </edge>
    <edge id=":75_6" function="internal">
        <lane id=":75_6_0" index="0" speed="45.00" length="20.82" shape="95.38,5720.53 94.90,5741.34" />
        <lane id=":75_6_1" index="1" speed="45.00" length="20.82" shape="92.18,5720.45 91.71,5741.27" />
        <lane id=":75_6_2" index="2" speed="45.00" length="20.82" shape="88.98,5720.38 88.51,5741.20" />
    </edge>
    <edge id=":75_9" function="internal">
        <lane id=":75_9_0" index="0" speed="9.84" length="4.02" shape="88.98,5720.38 88.18,5724.32" />
    </edge>
    <edge id=":75_10" function="internal">
        <lane id=":75_10_0" index="0" speed="3.65" length="1.44" shape="88.98,5720.38 88.15,5721.56" />
    </edge>
    <edge id=":75_24" function="internal">
        <lane id=":75_24_0" index="0" speed="9.84" length="18.00" shape="88.18,5724.32 87.91,5725.62 84.97,5729.31 80.17,5731.46 73.50,5732.05" />
    </edge>
    <edge id=":75_25" function="internal">
        <lane id=":75_25_0" index="0" speed="3.65" length="3.23" shape="88.15,5721.56 87.34,5721.94 86.55,5721.53 85.78,5720.31" />
    </edge>
    <edge id=":75_11" function="internal">
        <lane id=":75_11_0" index="0" speed="7.33" length="11.74" shape="73.58,5728.85 76.04,5728.36 77.83,5726.74 78.94,5724.01 79.38,5720.16" />
    </edge>
    <edge id=":75_12" function="internal">
        <lane id=":75_12_0" index="0" speed="45.00" length="27.32" shape="73.58,5728.85 78.55,5728.46 85.34,5727.52 93.08,5726.58 100.85,5726.24" />
        <lane id=":75_12_1" index="1" speed="45.00" length="27.32" shape="73.58,5728.85 100.79,5729.44" />
    </edge>
    <edge id=":75_14" function="internal">
        <lane id=":75_14_0" index="0" speed="9.84" length="6.18" shape="73.58,5728.85 79.70,5729.69" />
    </edge>
    <edge id=":75_15" function="internal">
        <lane id=":75_15_0" index="0" speed="3.65" length="1.44" shape="73.58,5728.85 74.76,5729.68" />
    </edge>
    <edge id=":75_26" function="internal">
        <lane id=":75_26_0" index="0" speed="9.84" length="15.81" shape="79.70,5729.69 80.21,5729.76 84.91,5732.12 87.68,5735.93 88.51,5741.20" />
    </edge>
    <edge id=":75_27" function="internal">
        <lane id=":75_27_0" index="0" speed="3.65" length="3.23" shape="74.76,5729.68 75.14,5730.49 74.72,5731.28 73.50,5732.05" />
    </edge>
    <edge id=":75_16" function="internal">
        <lane id=":75_16_0" index="0" speed="6.51" length="9.04" shape="78.91,5740.98 78.61,5738.52 77.60,5736.75 75.87,5735.65 73.43,5735.25" />
    </edge>
    <edge id=":75_17" function="internal">
        <lane id=":75_17_0" index="0" speed="45.00" length="20.82" shape="78.91,5740.98 79.38,5720.16" />
        <lane id=":75_17_1" index="1" speed="45.00" length="20.82" shape="82.11,5741.05 82.58,5720.24" />
        <lane id=":75_17_2" index="2" speed="45.00" length="20.82" shape="85.31,5741.12 85.78,5720.31" />
    </edge>
    <edge id=":75_20" function="internal">
        <lane id=":75_20_0" index="0" speed="9.86" length="4.00" shape="85.31,5741.12 86.11,5737.20" />
    </edge>
    <edge id=":75_21" function="internal">
        <lane id=":75_21_0" index="0" speed="3.65" length="1.44" shape="85.31,5741.12 86.13,5739.94" />
    </edge>
    <edge id=":75_28" function="internal">
        <lane id=":75_28_0" index="0" speed="9.86" length="18.01" shape="86.11,5737.20 86.38,5735.90 89.31,5732.21 94.12,5730.06 100.79,5729.44" />
    </edge>
    <edge id=":75_29" function="internal">
        <lane id=":75_29_0" index="0" speed="3.65" length="3.23" shape="86.13,5739.94 86.94,5739.56 87.73,5739.98 88.51,5741.20" />
    </edge>
    <edge id=":76_0" function="internal">
        <lane id=":76_0_0" index="0" speed="3.65" length="4.67" shape="31.64,5731.04 30.46,5730.21 30.07,5729.40 30.49,5728.61 31.71,5727.84" />
    </edge>
    <edge id=":77_0" function="internal">
        <lane id=":77_0_0" index="0" speed="3.65" length="4.67" shape="151.18,5730.41 152.37,5731.23 152.75,5732.04 152.34,5732.83 151.12,5733.61" />
    </edge>
    <edge id=":78_0" function="internal">
        <lane id=":78_0_0" index="0" speed="6.56" length="9.11" shape="116.80,5029.41 114.30,5029.73 112.50,5030.76 111.40,5032.49 110.99,5034.92" />
    </edge>
    <edge id=":78_1" function="internal">
        <lane id=":78_1_0" index="0" speed="10.39" length="24.85" shape="116.80,5029.41 108.73,5028.56 103.00,5026.21 99.62,5022.37 98.59,5017.04" />
        <lane id=":78_1_1" index="1" speed="9.82" length="22.09" shape="116.80,5029.41 110.13,5028.57 105.40,5026.25 102.62,5022.42 101.79,5017.11" />
    </edge>
    <edge id=":78_3" function="internal">
        <lane id=":78_3_0" index="0" speed="3.65" length="2.34" shape="116.80,5029.41 115.61,5028.60 115.22,5027.79" />
    </edge>
    <edge id=":78_14" function="internal">
        <lane id=":78_14_0" index="0" speed="3.65" length="2.34" shape="115.22,5027.79 115.63,5027.00 116.84,5026.21" />
    </edge>
    <edge id=":78_4" function="internal">
        <lane id=":78_4_0" index="0" speed="6.48" length="9.03" shape="111.39,5017.33 111.68,5019.79 112.69,5021.56 114.43,5022.63 116.88,5023.01" />
    </edge>
    <edge id=":78_5" function="internal">
        <lane id=":78_5_0" index="0" speed="45.00" length="17.60" shape="111.39,5017.33 110.99,5034.92" />
        <lane id=":78_5_1" index="1" speed="45.00" length="17.60" shape="108.19,5017.26 107.79,5034.85" />
        <lane id=":78_5_2" index="2" speed="45.00" length="17.60" shape="104.99,5017.18 104.59,5034.78" />
    </edge>
    <edge id=":78_8" function="internal">
        <lane id=":78_8_0" index="0" speed="3.65" length="1.44" shape="104.99,5017.18 104.16,5018.37" />
    </edge>
    <edge id=":78_15" function="internal">
        <lane id=":78_15_0" index="0" speed="3.65" length="3.23" shape="104.16,5018.37 103.35,5018.75 102.56,5018.33 101.79,5017.11" />
    </edge>
    <edge id=":78_9" function="internal">
        <lane id=":78_9_0" index="0" speed="45.00" length="17.60" shape="94.99,5034.56 95.39,5016.97" />
        <lane id=":78_9_1" index="1" speed="45.00" length="17.60" shape="98.19,5034.63 98.59,5017.04" />
        <lane id=":78_9_2" index="2" speed="45.00" length="17.60" shape="101.39,5034.71 101.79,5017.11" />
    </edge>
    <edge id=":78_12" function="internal">
        <lane id=":78_12_0" index="0" speed="9.36" length="2.99" shape="101.39,5034.71 102.18,5031.82" />
    </edge>
    <edge id=":78_13" function="internal">
        <lane id=":78_13_0" index="0" speed="3.65" length="1.44" shape="101.39,5034.71 102.22,5033.52" />
    </edge>
    <edge id=":78_16" function="internal">
        <lane id=":78_16_0" index="0" speed="9.36" length="16.65" shape="102.18,5031.82 102.43,5030.92 105.35,5028.24 110.15,5026.67 116.84,5026.21" />
    </edge>
    <edge id=":78_17" function="internal">
        <lane id=":78_17_0" index="0" speed="3.65" length="3.23" shape="102.22,5033.52 103.03,5033.14 103.82,5033.56 104.59,5034.78" />
    </edge>
    <edge id=":79_0" function="internal">
        <lane id=":79_0_0" index="0" speed="3.65" length="4.67" shape="178.77,5026.95 179.97,5027.77 180.36,5028.57 179.95,5029.37 178.74,5030.15" />
    </edge>
    <edge id=":80_0" function="internal">
        <lane id=":80_0_0" index="0" speed="6.63" length="9.19" shape="135.16,4218.42 132.63,4218.79 130.81,4219.85 129.70,4221.59 129.28,4224.02" />
    </edge>
    <edge id=":80_1" function="internal">
        <lane id=":80_1_0" index="0" speed="9.27" length="19.86" shape="135.16,4218.42 128.45,4217.90 123.70,4216.22 120.88,4213.39 120.02,4209.39" />
    </edge>
    <edge id=":80_2" function="internal">
        <lane id=":80_2_0" index="0" speed="3.65" length="1.44" shape="135.16,4218.42 133.95,4217.63" />
    </edge>
    <edge id=":80_12" function="internal">
        <lane id=":80_12_0" index="0" speed="3.65" length="3.23" shape="133.95,4217.63 133.55,4216.84 133.94,4216.03 135.13,4215.23" />
    </edge>
    <edge id=":80_3" function="internal">
        <lane id=":80_3_0" index="0" speed="6.44" length="9.03" shape="129.62,4209.62 129.91,4212.09 130.93,4213.84 132.67,4214.89 135.13,4215.23" />
    </edge>
    <edge id=":80_4" function="internal">
        <lane id=":80_4_0" index="0" speed="45.00" length="14.41" shape="129.62,4209.62 129.28,4224.02" />
        <lane id=":80_4_1" index="1" speed="45.00" length="14.41" shape="126.42,4209.54 126.08,4223.95" />
        <lane id=":80_4_2" index="2" speed="45.00" length="14.41" shape="123.22,4209.46 122.88,4223.88" />
    </edge>
    <edge id=":80_7" function="internal">
        <lane id=":80_7_0" index="0" speed="3.65" length="1.44" shape="123.22,4209.46 122.39,4210.64" />
    </edge>
    <edge id=":80_13" function="internal">
        <lane id=":80_13_0" index="0" speed="3.65" length="3.23" shape="122.39,4210.64 121.58,4211.03 120.79,4210.61 120.02,4209.39" />
    </edge>
    <edge id=":80_8" function="internal">
        <lane id=":80_8_0" index="0" speed="45.00" length="14.89" shape="113.29,4223.66 113.88,4219.34 115.05,4216.48 116.22,4213.63 116.82,4209.31" />
        <lane id=":80_8_1" index="1" speed="45.00" length="14.89" shape="116.49,4223.73 117.08,4219.41 118.25,4216.56 119.42,4213.71 120.02,4209.39" />
    </edge>
    <edge id=":80_10" function="internal">
        <lane id=":80_10_0" index="0" speed="9.42" length="2.95" shape="119.68,4223.80 120.48,4220.96" />
    </edge>
    <edge id=":80_11" function="internal">
        <lane id=":80_11_0" index="0" speed="3.65" length="1.44" shape="119.68,4223.80 120.51,4222.62" />
    </edge>
    <edge id=":80_14" function="internal">
        <lane id=":80_14_0" index="0" speed="9.42" length="16.64" shape="120.48,4220.96 120.72,4220.09 123.64,4217.43 128.45,4215.80 135.13,4215.23" />
    </edge>
    <edge id=":80_15" function="internal">
        <lane id=":80_15_0" index="0" speed="3.65" length="3.23" shape="120.51,4222.62 121.32,4222.24 122.11,4222.66 122.88,4223.88" />
    </edge>
    <edge id=":81_0" function="internal">
        <lane id=":81_0_0" index="0" speed="3.65" length="4.67" shape="208.05,4214.67 209.25,4215.46 209.66,4216.26 209.27,4217.06 208.07,4217.87" />
    </edge>
    <edge id=":82_0" function="internal">
        <lane id=":82_0_0" index="0" speed="7.31" length="11.71" shape="157.68,3408.29 153.83,3408.54 151.06,3409.51 149.38,3411.22 148.77,3413.66" />
    </edge>
    <edge id=":82_1" function="internal">
        <lane id=":82_1_0" index="0" speed="9.95" length="22.45" shape="157.68,3408.29 149.66,3407.53 143.95,3405.74 140.57,3402.91 139.51,3399.06" />
    </edge>
    <edge id=":82_2" function="internal">
        <lane id=":82_2_0" index="0" speed="3.65" length="1.44" shape="157.68,3408.29 156.50,3407.46" />
    </edge>
    <edge id=":82_12" function="internal">
        <lane id=":82_12_0" index="0" speed="3.65" length="3.23" shape="156.50,3407.46 156.13,3406.65 156.55,3405.86 157.77,3405.09" />
    </edge>
    <edge id=":82_3" function="internal">
        <lane id=":82_3_0" index="0" speed="6.52" length="9.03" shape="152.30,3399.35 152.60,3401.80 153.61,3403.58 155.33,3404.67 157.77,3405.09" />
    </edge>
    <edge id=":82_4" function="internal">
        <lane id=":82_4_0" index="0" speed="45.00" length="14.85" shape="152.30,3399.35 151.71,3403.66 150.54,3406.50 149.37,3409.35 148.77,3413.66" />
        <lane id=":82_4_1" index="1" speed="45.00" length="14.85" shape="149.10,3399.28 148.51,3403.58 147.34,3406.43 146.17,3409.27 145.57,3413.58" />
        <lane id=":82_4_2" index="2" speed="45.00" length="14.85" shape="145.90,3399.20 145.31,3403.51 144.14,3406.35 142.97,3409.20 142.37,3413.50" />
    </edge>
    <edge id=":82_7" function="internal">
        <lane id=":82_7_0" index="0" speed="3.65" length="1.44" shape="142.71,3399.13 141.88,3400.31" />
    </edge>
    <edge id=":82_13" function="internal">
        <lane id=":82_13_0" index="0" speed="3.65" length="3.23" shape="141.88,3400.31 141.07,3400.69 140.28,3400.28 139.51,3399.06" />
    </edge>
    <edge id=":82_8" function="internal">
        <lane id=":82_8_0" index="0" speed="45.00" length="14.37" shape="135.97,3413.35 136.31,3398.99" />
        <lane id=":82_8_1" index="1" speed="45.00" length="14.37" shape="139.17,3413.43 139.51,3399.06" />
    </edge>
    <edge id=":82_10" function="internal">
        <lane id=":82_10_0" index="0" speed="9.93" length="3.81" shape="139.17,3413.43 140.35,3409.80" />
    </edge>
    <edge id=":82_11" function="internal">
        <lane id=":82_11_0" index="0" speed="3.65" length="1.44" shape="139.17,3413.43 140.00,3412.24" />
    </edge>
    <edge id=":82_14" function="internal">
        <lane id=":82_14_0" index="0" speed="9.93" length="18.67" shape="140.35,3409.80 140.41,3409.59 143.93,3406.93 149.71,3405.43 157.77,3405.09" />
    </edge>
    <edge id=":82_15" function="internal">
        <lane id=":82_15_0" index="0" speed="3.65" length="3.23" shape="140.00,3412.24 140.81,3411.86 141.60,3412.28 142.37,3413.50" />
    </edge>
    <edge id=":83_0" function="internal">
        <lane id=":83_0_0" index="0" speed="3.65" length="4.67" shape="255.88,3407.71 257.06,3408.54 257.44,3409.35 257.01,3410.14 255.79,3410.91" />
    </edge>
    <edge id=":84_0" function="internal">
        <lane id=":84_0_0" index="0" speed="6.50" length="9.03" shape="193.95,1800.57 191.49,1800.85 189.72,1801.86 188.63,1803.58 188.22,1806.02" />
    </edge>
    <edge id=":84_1" function="internal">
        <lane id=":84_1_0" index="0" speed="45.00" length="33.69" shape="193.95,1800.57 160.28,1799.71" />
        <lane id=":84_1_1" index="1" speed="45.00" length="33.69" shape="194.04,1797.37 160.36,1796.51" />
        <lane id=":84_1_2" index="2" speed="45.00" length="33.69" shape="194.12,1794.17 160.44,1793.31" />
    </edge>
    <edge id=":84_4" function="internal">
        <lane id=":84_4_0" index="0" speed="10.49" length="7.43" shape="194.12,1794.17 186.74,1793.28" />
    </edge>
    <edge id=":84_5" function="internal">
        <lane id=":84_5_0" index="0" speed="3.65" length="1.44" shape="194.12,1794.17 192.95,1793.34" />
    </edge>
    <edge id=":84_25" function="internal">
        <lane id=":84_25_0" index="0" speed="10.49" length="17.47" shape="186.74,1793.28 186.08,1793.20 180.36,1790.77 176.96,1786.90 175.89,1781.58" />
    </edge>
    <edge id=":84_26" function="internal">
        <lane id=":84_26_0" index="0" speed="3.65" length="3.23" shape="192.95,1793.34 192.57,1792.53 192.99,1791.74 194.21,1790.97" />
    </edge>
    <edge id=":84_6" function="internal">
        <lane id=":84_6_0" index="0" speed="7.44" length="12.01" shape="185.49,1781.72 186.00,1784.28 187.65,1786.14 190.41,1787.30 194.30,1787.77" />
    </edge>
    <edge id=":84_7" function="internal">
        <lane id=":84_7_0" index="0" speed="45.00" length="24.42" shape="185.49,1781.72 185.88,1788.96 186.89,1793.87 187.88,1798.79 188.22,1806.02" />
        <lane id=":84_7_1" index="1" speed="45.00" length="24.42" shape="182.29,1781.67 182.68,1788.90 183.69,1793.81 184.68,1798.72 185.02,1805.95" />
        <lane id=":84_7_2" index="2" speed="45.00" length="24.42" shape="179.09,1781.62 179.48,1788.85 180.49,1793.75 181.48,1798.66 181.82,1805.88" />
        <lane id=":84_7_3" index="3" speed="45.00" length="24.42" shape="179.09,1781.62 178.62,1805.81" />
    </edge>
    <edge id=":84_11" function="internal">
        <lane id=":84_11_0" index="0" speed="10.39" length="3.45" shape="179.09,1781.62 178.30,1784.98" />
    </edge>
    <edge id=":84_12" function="internal">
        <lane id=":84_12_0" index="0" speed="3.65" length="1.44" shape="179.09,1781.62 178.27,1782.81" />
    </edge>
    <edge id=":84_27" function="internal">
        <lane id=":84_27_0" index="0" speed="10.39" length="21.38" shape="178.30,1784.98 177.85,1786.90 174.33,1790.61 168.53,1792.75 160.44,1793.31" />
    </edge>
    <edge id=":84_28" function="internal">
        <lane id=":84_28_0" index="0" speed="3.65" length="3.23" shape="178.27,1782.81 177.46,1783.20 176.67,1782.79 175.89,1781.58" />
    </edge>
    <edge id=":84_13" function="internal">
        <lane id=":84_13_0" index="0" speed="6.49" length="9.03" shape="160.59,1786.91 163.05,1786.62 164.82,1785.61 165.90,1783.88 166.29,1781.43" />
    </edge>
    <edge id=":84_14" function="internal">
        <lane id=":84_14_0" index="0" speed="45.00" length="33.71" shape="160.59,1786.91 194.30,1787.77" />
        <lane id=":84_14_1" index="1" speed="45.00" length="33.71" shape="160.51,1790.11 194.21,1790.97" />
    </edge>
    <edge id=":84_16" function="internal">
        <lane id=":84_16_0" index="0" speed="10.91" length="6.10" shape="160.51,1790.11 166.55,1790.97" />
    </edge>
    <edge id=":84_17" function="internal">
        <lane id=":84_17_0" index="0" speed="3.65" length="1.44" shape="160.51,1790.11 161.70,1790.94" />
    </edge>
    <edge id=":84_29" function="internal">
        <lane id=":84_29_0" index="0" speed="10.91" length="21.15" shape="166.55,1790.97 168.57,1791.26 174.27,1794.26 177.62,1799.11 178.62,1805.81" />
    </edge>
    <edge id=":84_30" function="internal">
        <lane id=":84_30_0" index="0" speed="3.65" length="3.23" shape="161.70,1790.94 162.08,1791.75 161.66,1792.54 160.44,1793.31" />
    </edge>
    <edge id=":84_18" function="internal">
        <lane id=":84_18_0" index="0" speed="8.13" length="14.68" shape="172.22,1805.66 171.53,1803.17 169.30,1801.34 165.56,1800.19 160.28,1799.71" />
    </edge>
    <edge id=":84_19" function="internal">
        <lane id=":84_19_0" index="0" speed="45.00" length="24.53" shape="172.22,1805.66 171.37,1799.41 169.27,1794.48 167.17,1789.07 166.29,1781.43" />
        <lane id=":84_19_1" index="1" speed="45.00" length="24.53" shape="172.22,1805.66 171.87,1799.38 170.87,1794.38 169.87,1788.99 169.49,1781.48" />
        <lane id=":84_19_2" index="2" speed="45.00" length="24.53" shape="175.42,1805.73 175.07,1799.45 174.07,1794.45 173.07,1789.04 172.69,1781.53" />
        <lane id=":84_19_3" index="3" speed="45.00" length="24.53" shape="175.42,1805.73 175.89,1781.58" />
    </edge>
    <edge id=":84_23" function="internal">
        <lane id=":84_23_0" index="0" speed="10.88" length="4.11" shape="175.42,1805.73 176.21,1801.70" />
    </edge>
    <edge id=":84_24" function="internal">
        <lane id=":84_24_0" index="0" speed="3.65" length="1.44" shape="175.42,1805.73 176.25,1804.55" />
    </edge>
    <edge id=":84_31" function="internal">
        <lane id=":84_31_0" index="0" speed="10.88" length="23.09" shape="176.21,1801.70 176.73,1799.09 180.29,1794.41 186.12,1791.71 194.21,1790.97" />
    </edge>
    <edge id=":84_32" function="internal">
        <lane id=":84_32_0" index="0" speed="3.65" length="3.23" shape="176.25,1804.55 177.06,1804.17 177.85,1804.59 178.62,1805.81" />
    </edge>
    <edge id=":85_0" function="internal">
        <lane id=":85_0_0" index="0" speed="3.65" length="4.67" shape="99.27,1791.84 98.09,1791.01 97.71,1790.20 98.13,1789.41 99.35,1788.64" />
    </edge>
    <edge id=":86_0" function="internal">
        <lane id=":86_0_0" index="0" speed="3.65" length="4.67" shape="283.12,1793.37 284.30,1794.20 284.68,1795.01 284.26,1795.80 283.04,1796.56" />
    </edge>
    <edge id=":87_0" function="internal">
        <lane id=":87_0_0" index="0" speed="7.39" length="11.86" shape="227.27,178.74 224.81,179.26 223.02,180.90 221.91,183.68 221.46,187.58" />
    </edge>
    <edge id=":87_1" function="internal">
        <lane id=":87_1_0" index="0" speed="45.00" length="27.37" shape="227.27,178.74 220.71,179.13 215.02,180.14 208.63,181.13 200.00,181.47" />
        <lane id=":87_1_1" index="1" speed="45.00" length="27.37" shape="227.32,175.54 220.77,175.94 215.07,176.94 208.69,177.93 200.06,178.27" />
        <lane id=":87_1_2" index="2" speed="45.00" length="27.37" shape="227.32,175.54 200.12,175.07" />
    </edge>
    <edge id=":87_4" function="internal">
        <lane id=":87_4_0" index="0" speed="10.33" length="5.04" shape="227.32,175.54 222.35,174.74" />
    </edge>
    <edge id=":87_5" function="internal">
        <lane id=":87_5_0" index="0" speed="3.65" length="1.44" shape="227.32,175.54 226.13,174.72" />
    </edge>
    <edge id=":87_24" function="internal">
        <lane id=":87_24_0" index="0" speed="10.33" length="19.44" shape="222.35,174.74 220.71,174.48 216.04,171.55 213.31,166.74 212.51,160.05" />
    </edge>
    <edge id=":87_25" function="internal">
        <lane id=":87_25_0" index="0" speed="3.65" length="3.23" shape="226.13,174.72 225.74,173.91 226.16,173.12 227.37,172.34" />
    </edge>
    <edge id=":87_6" function="internal">
        <lane id=":87_6_0" index="0" speed="7.28" length="11.62" shape="218.91,160.19 219.39,162.66 220.98,164.44 223.68,165.53 227.47,165.94" />
    </edge>
    <edge id=":87_7" function="internal">
        <lane id=":87_7_0" index="0" speed="45.00" length="27.47" shape="218.91,160.19 219.26,166.76 220.23,172.48 221.17,178.91 221.46,187.58" />
        <lane id=":87_7_1" index="1" speed="45.00" length="27.47" shape="215.71,160.12 216.06,166.69 217.03,172.41 217.98,178.83 218.26,187.50" />
        <lane id=":87_7_2" index="2" speed="45.00" length="27.47" shape="215.71,160.12 215.06,187.42" />
    </edge>
    <edge id=":87_10" function="internal">
        <lane id=":87_10_0" index="0" speed="10.39" length="5.06" shape="215.71,160.12 214.88,165.11" />
    </edge>
    <edge id=":87_11" function="internal">
        <lane id=":87_11_0" index="0" speed="3.65" length="1.44" shape="215.71,160.12 214.88,161.30" />
    </edge>
    <edge id=":87_26" function="internal">
        <lane id=":87_26_0" index="0" speed="10.39" length="19.55" shape="214.88,165.11 214.61,166.77 211.64,171.48 206.81,174.24 200.12,175.07" />
    </edge>
    <edge id=":87_27" function="internal">
        <lane id=":87_27_0" index="0" speed="3.65" length="3.23" shape="214.88,161.30 214.07,161.69 213.28,161.27 212.51,160.05" />
    </edge>
    <edge id=":87_12" function="internal">
        <lane id=":87_12_0" index="0" speed="7.37" length="11.85" shape="200.24,168.67 202.73,168.16 204.54,166.53 205.67,163.78 206.11,159.91" />
    </edge>
    <edge id=":87_13" function="internal">
        <lane id=":87_13_0" index="0" speed="45.00" length="27.34" shape="200.24,168.67 206.79,168.29 212.47,167.29 218.85,166.30 227.47,165.94" />