<?xml version="1.0" ?>
<routes>
    <vType id="car" type="passenger"/>
    <route id="network_route_0" edges="106_39 39_73"/>
    <flow id="network_flow_0" route="network_route_0" number="58" type="car" departLane="best" departSpeed="max" departPos="random_free" begin="32400" end="43200"/>
    <route id="network_route_1" edges="106_39 39_74"/>
    <flow id="network_flow_1" route="network_route_1" number="214" type="car" departLane="best" departSpeed="max" departPos="random_free" begin="32400" end="43200"/>
    <route id="network_route_2" edges="106_39 39_75 75_76"/>
    <flow id="network_flow_2" route="network_route_2" number="2" type="car" departLane="best" departSpeed="max" departPos="random_free" begin="32400" end="43200"/>
    <route id="network_route_3" edges="106_39 39_75 75_77"/>
    <flow id="network_flow_3" route="network_route_3" number="41" type="car" departLane="best" departSpeed="max" departPos="random_free" begin="32400" end="43200"/>
    <route id="network_route_4" edges="106_39 39_75 75_78 78_79"/>
    <flow id="network_flow_4" route="network_route_4" number="79" type="car" departLane="best" departSpeed="max" departPos="random_free" begin="32400" end="43200"/>
    <route id="network_route_5" edges="106_39 39_75 75_78 78_80 80_81"/>
    <flow id="network_flow_5" route="network_route_5" number="48" type="car" departLane="best" departSpeed="max" departPos="random_free" begin="32400" end="43200"/>
    <route id="network_route_6" edges="106_39 39_75 75_78 78_80 80_82 82_83"/>
    <flow id="network_flow_6" route="network_route_6" number="72" type="car" departLane="best" departSpeed="max" departPos="random_free" begin="32400" end="43200"/>
    <route id="network_route_7" edges="106_39 39_75 75_78 78_80 80_82 82_84 84_85"/>
    <flow id="network_flow_7" route="network_route_7" number="6" type="car" departLane="best" departSpeed="max" departPos="random_free" begin="32400" end="43200"/>
    <route id="network_route_8" edges="106_39 39_75 75_78 78_80 80_82 82_84 84_86"/>
    <flow id="network_flow_8" route="network_route_8" number="23" type="car" departLane="best" departSpeed="max" departPos="random_free" begin="32400" end="43200"/>
    <route id="network_route_9" edges="106_39 39_75 75_78 78_80 80_82 82_84 84_98 98_87 87_31"/>
    <flow id="network_flow_9" route="network_route_9" number="288" type="car" departLane="best" departSpeed="max" departPos="random_free" begin="32400" end="43200"/>
    <route id="network_route_10" edges="106_39 39_75 75_78 78_80 80_82 82_84 84_98 98_97"/>
    <flow id="network_flow_10" route="network_route_10" number="25" type="car" departLane="best" departSpeed="max" departPos="random_free" begin="32400" end="43200"/>
    <route id="network_route_11" edges="31_87 87_88"/>
    <flow id="network_flow_11" route="network_route_11" number="17" type="car" departLane="best" departSpeed="max" departPos="random_free" begin="32400" end="43200"/>
    <route id="network_route_12" edges="31_87 87_89"/>
    <flow id="network_flow_12" route="network_route_12" number="28" type="car" departLane="best" departSpeed="max" departPos="random_free" begin="32400" end="43200"/>
    <route id="network_route_13" edges="31_87 87_98 98_84 84_82 82_80 80_78 78_75 75_39 39_106"/>
    <flow id="network_flow_13" route="network_route_13" number="173" type="car" departLane="best" departSpeed="max" departPos="random_free" begin="32400" end="43200"/>
    <route id="network_route_14" edges="31_87 87_98 98_84 84_82 82_80 80_78 78_75 75_76"/>
    <flow id="network_flow_14" route="network_route_14" number="67" type="car" departLane="best" departSpeed="max" departPos="random_free" begin="32400" end="43200"/>
    <route id="network_route_15" edges="31_87 87_98 98_84 84_82 82_80 80_78 78_75 75_77"/>
    <flow id="network_flow_15" route="network_route_15" number="22" type="car" departLane="best" departSpeed="max" departPos="random_free" begin="32400" end="43200"/>
    <route id="network_route_16" edges="31_87 87_98 98_84 84_82 82_80 80_78 78_79"/>
    <flow id="network_flow_16" route="network_route_16" number="61" type="car" departLane="best" departSpeed="max" departPos="random_free" begin="32400" end="43200"/>
    <route id="network_route_17" edges="31_87 87_98 98_84 84_82 82_80 80_81"/>
    <flow id="network_flow_17" route="network_route_17" number="42" type="car" departLane="best" departSpeed="max" departPos="random_free" begin="32400" end="43200"/>
    <route id="network_route_18" edges="31_87 87_98 98_84 84_82 82_83"/>
    <flow id="network_flow_18" route="network_route_18" number="56" type="car" departLane="best" departSpeed="max" departPos="random_free" begin="32400" end="43200"/>
    <route id="network_route_19" edges="31_87 87_98 98_84 84_85"/>
    <flow id="network_flow_19" route="network_route_19" number="17" type="car" departLane="best" departSpeed="max" departPos="random_free" begin="32400" end="43200"/>
    <route id="network_route_20" edges="31_87 87_98 98_84 84_86"/>
    <flow id="network_flow_20" route="network_route_20" number="29" type="car" departLane="best" departSpeed="max" departPos="random_free" begin="32400" end="43200"/>
    <route id="network_route_21" edges="31_87 87_98 98_97"/>
    <flow id="network_flow_21" route="network_route_21" number="74" type="car" departLane="best" departSpeed="max" departPos="random_free" begin="32400" end="43200"/>
    <route id="network_route_22" edges="73_39 39_106"/>
    <flow id="network_flow_22" route="network_route_22" number="182" type="car" departLane="best" departSpeed="max" departPos="random_free" begin="32400" end="43200"/>
    <route id="network_route_23" edges="73_39 39_74"/>
    <flow id="network_flow_23" route="network_route_23" number="122" type="car" departLane="best" departSpeed="max" departPos="random_free" begin="32400" end="43200"/>
    <route id="network_route_24" edges="74_39 39_106"/>
    <flow id="network_flow_24" route="network_route_24" number="315" type="car" departLane="best" departSpeed="max" departPos="random_free" begin="32400" end="43200"/>
    <route id="network_route_25" edges="74_39 39_73"/>
    <flow id="network_flow_25" route="network_route_25" number="140" type="car" departLane="best" departSpeed="max" departPos="random_free" begin="32400" end="43200"/>
    <route id="network_route_26" edges="76_75 75_39 39_106"/>
    <flow id="network_flow_26" route="network_route_26" number="5" type="car" departLane="best" departSpeed="max" departPos="random_free" begin="32400" end="43200"/>
    <route id="network_route_27" edges="76_75 75_77"/>
    <flow id="network_flow_27" route="network_route_27" number="18" type="car" departLane="best" departSpeed="max" departPos="random_free" begin="32400" end="43200"/>
    <route id="network_route_28" edges="76_75 75_78 78_80 80_82 82_84 84_98 98_87 87_31"/>
    <flow id="network_flow_28" route="network_route_28" number="30" type="car" departLane="best" departSpeed="max" departPos="random_free" begin="32400" end="43200"/>
    <route id="network_route_29" edges="77_75 75_39 39_106"/>
    <flow id="network_flow_29" route="network_route_29" number="14" type="car" departLane="best" departSpeed="max" departPos="random_free" begin="32400" end="43200"/>
    <route id="network_route_30" edges="77_75 75_76"/>
    <flow id="network_flow_30" route="network_route_30" number="14" type="car" departLane="best" departSpeed="max" departPos="random_free" begin="32400" end="43200"/>
    <route id="network_route_31" edges="77_75 75_78 78_80 80_82 82_84 84_98 98_87 87_31"/>
    <flow id="network_flow_31" route="network_route_31" number="17" type="car" departLane="best" departSpeed="max" departPos="random_free" begin="32400" end="43200"/>
    <route id="network_route_32" edges="79_78 78_75 75_39 39_106"/>
    <flow id="network_flow_32" route="network_route_32" number="175" type="car" departLane="best" departSpeed="max" departPos="random_free" begin="32400" end="43200"/>
    <route id="network_route_33" edges="79_78 78_80 80_82 82_84 84_98 98_87 87_31"/>
    <flow id="network_flow_33" route="network_route_33" number="93" type="car" departLane="best" departSpeed="max" departPos="random_free" begin="32400" end="43200"/>
    <route id="network_route_34" edges="81_80 80_78 78_75 75_39 39_106"/>
    <flow id="network_flow_34" route="network_route_34" number="52" type="car" departLane="best" departSpeed="max" departPos="random_free" begin="32400" end="43200"/>
    <route id="network_route_35" edges="81_80 80_82 82_84 84_98 98_87 87_31"/>
    <flow id="network_flow_35" route="network_route_35" number="27" type="car" departLane="best" departSpeed="max" departPos="random_free" begin="32400" end="43200"/>
    <route id="network_route_36" edges="83_82 82_80 80_78 78_75 75_39 39_106"/>
    <flow id="network_flow_36" route="network_route_36" number="193" type="car" departLane="best" departSpeed="max" departPos="random_free" begin="32400" end="43200"/>
    <route id="network_route_37" edges="83_82 82_84 84_98 98_87 87_31"/>
    <flow id="network_flow_37" route="network_route_37" number="28" type="car" departLane="best" departSpeed="max" departPos="random_free" begin="32400" end="43200"/>
    <route id="network_route_38" edges="83_82 82_84 84_98 98_87 87_88"/>
    <flow id="network_flow_38" route="network_route_38" number="6" type="car" departLane="best" departSpeed="max" departPos="random_free" begin="32400" end="43200"/>
    <route id="network_route_39" edges="83_82 82_84 84_98 98_87 87_89"/>
    <flow id="network_flow_39" route="network_route_39" number="21" type="car" departLane="best" departSpeed="max" departPos="random_free" begin="32400" end="43200"/>
    <route id="network_route_40" edges="85_84 84_82 82_80 80_78 78_75 75_39 39_106"/>
    <flow id="network_flow_40" route="network_route_40" number="12" type="car" departLane="best" departSpeed="max" departPos="random_free" begin="32400" end="43200"/>
    <route id="network_route_41" edges="85_84 84_86"/>
    <flow id="network_flow_41" route="network_route_41" number="8" type="car" departLane="best" departSpeed="max" departPos="random_free" begin="32400" end="43200"/>
    <route id="network_route_42" edges="86_84 84_82 82_80 80_78 78_75 75_39 39_106"/>
    <flow id="network_flow_42" route="network_route_42" number="23" type="car" departLane="best" departSpeed="max" departPos="random_free" begin="32400" end="43200"/>
    <route id="network_route_43" edges="86_84 84_85"/>
    <flow id="network_flow_43" route="network_route_43" number="10" type="car" departLane="best" departSpeed="max" departPos="random_free" begin="32400" end="43200"/>
    <route id="network_route_44" edges="88_87 87_31"/>
    <flow id="network_flow_44" route="network_route_44" number="18" type="car" departLane="best" departSpeed="max" departPos="random_free" begin="32400" end="43200"/>
    <route id="network_route_45" edges="88_87 87_89"/>
    <flow id="network_flow_45" route="network_route_45" number="15" type="car" departLane="best" departSpeed="max" departPos="random_free" begin="32400" end="43200"/>
    <route id="network_route_46" edges="89_87 87_31"/>
    <flow id="network_flow_46" route="network_route_46" number="77" type="car" departLane="best" departSpeed="max" departPos="random_free" begin="32400" end="43200"/>
    <route id="network_route_47" edges="89_87 87_88"/>
    <flow id="network_flow_47" route="network_route_47" number="19" type="car" departLane="best" departSpeed="max" departPos="random_free" begin="32400" end="43200"/>
    <route id="network_route_48" edges="97_98 98_84 84_82 82_80 80_78 78_75 75_39 39_106"/>
    <flow id="network_flow_48" route="network_route_48" number="21" type="car" departLane="best" departSpeed="max" departPos="random_free" begin="32400" end="43200"/>
</routes>
