<?xml version="1.0" ?>
<additional>
    <inductionLoop id="75_39_0_detector" lane="75_39_0" pos="-8" friendlyPos="true" file="output_loop_detector_202602031300.xml"/>
    <inductionLoop id="75_39_1_detector" lane="75_39_1" pos="-8" friendlyPos="true" file="output_loop_detector_202602031300.xml"/>
    <inductionLoop id="75_39_2_detector" lane="75_39_2" pos="-8" friendlyPos="true" file="output_loop_detector_202602031300.xml"/>
    <inductionLoop id="106_39_0_detector" lane="106_39_0" pos="-8" friendlyPos="true" file="output_loop_detector_202602031300.xml"/>
    <inductionLoop id="106_39_1_detector" lane="106_39_1" pos="-8" friendlyPos="true" file="output_loop_detector_202602031300.xml"/>
    <inductionLoop id="106_39_2_detector" lane="106_39_2" pos="-8" friendlyPos="true" file="output_loop_detector_202602031300.xml"/>
    <inductionLoop id="73_39_0_detector" lane="73_39_0" pos="-8" friendlyPos="true" file="output_loop_detector_202602031300.xml"/>
    <inductionLoop id="73_39_1_detector" lane="73_39_1" pos="-8" friendlyPos="true" file="output_loop_detector_202602031300.xml"/>
    <inductionLoop id="74_39_0_detector" lane="74_39_0" pos="-8" friendlyPos="true" file="output_loop_detector_202602031300.xml"/>
    <inductionLoop id="74_39_1_detector" lane="74_39_1" pos="-8" friendlyPos="true" file="output_loop_detector_202602031300.xml"/>
    <inductionLoop id="78_75_0_detector" lane="78_75_0" pos="-8" friendlyPos="true" file="output_loop_detector_202602031300.xml"/>
    <inductionLoop id="78_75_1_detector" lane="78_75_1" pos="-8" friendlyPos="true" file="output_loop_detector_202602031300.xml"/>
    <inductionLoop id="78_75_2_detector" lane="78_75_2" pos="-8" friendlyPos="true" file="output_loop_detector_202602031300.xml"/>
    <inductionLoop id="39_75_0_detector" lane="39_75_0" pos="-8" friendlyPos="true" file="output_loop_detector_202602031300.xml"/>
    <inductionLoop id="39_75_1_detector" lane="39_75_1" pos="-8" friendlyPos="true" file="output_loop_detector_202602031300.xml"/>
    <inductionLoop id="39_75_2_detector" lane="39_75_2" pos="-8" friendlyPos="true" file="output_loop_detector_202602031300.xml"/>
    <inductionLoop id="76_75_0_detector" lane="76_75_0" pos="-8" friendlyPos="true" file="output_loop_detector_202602031300.xml"/>
    <inductionLoop id="76_75_1_detector" lane="76_75_1" pos="-8" friendlyPos="true" file="output_loop_detector_202602031300.xml"/>
    <inductionLoop id="77_75_0_detector" lane="77_75_0" pos="-8" friendlyPos="true" file="output_loop_detector_202602031300.xml"/>
    <inductionLoop id="77_75_1_detector" lane="77_75_1" pos="-8" friendlyPos="true" file="output_loop_detector_202602031300.xml"/>
    <inductionLoop id="80_78_0_detector" lane="80_78_0" pos="-8" friendlyPos="true" file="output_loop_detector_202602031300.xml"/>
    <inductionLoop id="80_78_1_detector" lane="80_78_1" pos="-8" friendlyPos="true" file="output_loop_detector_202602031300.xml"/>
    <inductionLoop id="80_78_2_detector" lane="80_78_2" pos="-8" friendlyPos="true" file="output_loop_detector_202602031300.xml"/>
    <inductionLoop id="75_78_0_detector" lane="75_78_0" pos="-8" friendlyPos="true" file="output_loop_detector_202602031300.xml"/>
    <inductionLoop id="75_78_1_detector" lane="75_78_1" pos="-8" friendlyPos="true" file="output_loop_detector_202602031300.xml"/>
    <inductionLoop id="75_78_2_detector" lane="75_78_2" pos="-8" friendlyPos="true" file="output_loop_detector_202602031300.xml"/>
    <inductionLoop id="79_78_0_detector" lane="79_78_0" pos="-8" friendlyPos="true" file="output_loop_detector_202602031300.xml"/>
    <inductionLoop id="79_78_1_detector" lane="79_78_1" pos="-8" friendlyPos="true" file="output_loop_detector_202602031300.xml"/>
    <inductionLoop id="82_80_0_detector" lane="82_80_0" pos="-8" friendlyPos="true" file="output_loop_detector_202602031300.xml"/>
    <inductionLoop id="82_80_1_detector" lane="82_80_1" pos="-8" friendlyPos="true" file="output_loop_detector_202602031300.xml"/>
    <inductionLoop id="78_80_0_detector" lane="78_80_0" pos="-8" friendlyPos="true" file="output_loop_detector_202602031300.xml"/>
    <inductionLoop id="78_80_1_detector" lane="78_80_1" pos="-8" friendlyPos="true" file="output_loop_detector_202602031300.xml"/>
    <inductionLoop id="78_80_2_detector" lane="78_80_2" pos="-8" friendlyPos="true" file="output_loop_detector_202602031300.xml"/>
    <inductionLoop id="81_80_0_detector" lane="81_80_0" pos="-8" friendlyPos="true" file="output_loop_detector_202602031300.xml"/>
    <inductionLoop id="84_82_0_detector" lane="84_82_0" pos="-8" friendlyPos="true" file="output_loop_detector_202602031300.xml"/>
    <inductionLoop id="84_82_1_detector" lane="84_82_1" pos="-8" friendlyPos="true" file="output_loop_detector_202602031300.xml"/>
    <inductionLoop id="80_82_0_detector" lane="80_82_0" pos="-8" friendlyPos="true" file="output_loop_detector_202602031300.xml"/>
    <inductionLoop id="80_82_1_detector" lane="80_82_1" pos="-8" friendlyPos="true" file="output_loop_detector_202602031300.xml"/>
    <inductionLoop id="80_82_2_detector" lane="80_82_2" pos="-8" friendlyPos="true" file="output_loop_detector_202602031300.xml"/>
    <inductionLoop id="83_82_0_detector" lane="83_82_0" pos="-8" friendlyPos="true" file="output_loop_detector_202602031300.xml"/>
    <inductionLoop id="98_84_0_detector" lane="98_84_0" pos="-8" friendlyPos="true" file="output_loop_detector_202602031300.xml"/>
    <inductionLoop id="98_84_1_detector" lane="98_84_1" pos="-8" friendlyPos="true" file="output_loop_detector_202602031300.xml"/>
    <inductionLoop id="98_84_2_detector" lane="98_84_2" pos="-8" friendlyPos="true" file="output_loop_detector_202602031300.xml"/>
    <inductionLoop id="98_84_3_detector" lane="98_84_3" pos="-8" friendlyPos="true" file="output_loop_detector_202602031300.xml"/>
    <inductionLoop id="82_84_0_detector" lane="82_84_0" pos="-8" friendlyPos="true" file="output_loop_detector_202602031300.xml"/>
    <inductionLoop id="82_84_1_detector" lane="82_84_1" pos="-8" friendlyPos="true" file="output_loop_detector_202602031300.xml"/>
    <inductionLoop id="82_84_2_detector" lane="82_84_2" pos="-8" friendlyPos="true" file="output_loop_detector_202602031300.xml"/>
    <inductionLoop id="82_84_3_detector" lane="82_84_3" pos="-8" friendlyPos="true" file="output_loop_detector_202602031300.xml"/>
    <inductionLoop id="85_84_0_detector" lane="85_84_0" pos="-8" friendlyPos="true" file="output_loop_detector_202602031300.xml"/>
    <inductionLoop id="85_84_1_detector" lane="85_84_1" pos="-8" friendlyPos="true" file="output_loop_detector_202602031300.xml"/>
    <inductionLoop id="85_84_2_detector" lane="85_84_2" pos="-8" friendlyPos="true" file="output_loop_detector_202602031300.xml"/>
    <inductionLoop id="86_84_0_detector" lane="86_84_0" pos="-8" friendlyPos="true" file="output_loop_detector_202602031300.xml"/>
    <inductionLoop id="86_84_1_detector" lane="86_84_1" pos="-8" friendlyPos="true" file="output_loop_detector_202602031300.xml"/>
    <inductionLoop id="31_87_0_detector" lane="31_87_0" pos="-8" friendlyPos="true" file="output_loop_detector_202602031300.xml"/>
    <inductionLoop id="31_87_1_detector" lane="31_87_1" pos="-8" friendlyPos="true" file="output_loop_detector_202602031300.xml"/>
    <inductionLoop id="31_87_2_detector" lane="31_87_2" pos="-8" friendlyPos="true" file="output_loop_detector_202602031300.xml"/>
    <inductionLoop id="98_87_0_detector" lane="98_87_0" pos="-8" friendlyPos="true" file="output_loop_detector_202602031300.xml"/>
    <inductionLoop id="98_87_1_detector" lane="98_87_1" pos="-8" friendlyPos="true" file="output_loop_detector_202602031300.xml"/>
    <inductionLoop id="98_87_2_detector" lane="98_87_2" pos="-8" friendlyPos="true" file="output_loop_detector_202602031300.xml"/>
    <inductionLoop id="88_87_0_detector" lane="88_87_0" pos="-8" friendlyPos="true" file="output_loop_detector_202602031300.xml"/>
    <inductionLoop id="88_87_1_detector" lane="88_87_1" pos="-8" friendlyPos="true" file="output_loop_detector_202602031300.xml"/>
    <inductionLoop id="88_87_2_detector" lane="88_87_2" pos="-8" friendlyPos="true" file="output_loop_detector_202602031300.xml"/>
    <inductionLoop id="89_87_0_detector" lane="89_87_0" pos="-8" friendlyPos="true" file="output_loop_detector_202602031300.xml"/>
    <inductionLoop id="89_87_1_detector" lane="89_87_1" pos="-8" friendlyPos="true" file="output_loop_detector_202602031300.xml"/>
    <inductionLoop id="89_87_2_detector" lane="89_87_2" pos="-8" friendlyPos="true" file="output_loop_detector_202602031300.xml"/>
    <inductionLoop id="87_98_0_detector" lane="87_98_0" pos="-8" friendlyPos="true" file="output_loop_detector_202602031300.xml"/>
    <inductionLoop id="87_98_1_detector" lane="87_98_1" pos="-8" friendlyPos="true" file="output_loop_detector_202602031300.xml"/>
    <inductionLoop id="87_98_2_detector" lane="87_98_2" pos="-8" friendlyPos="true" file="output_loop_detector_202602031300.xml"/>
    <inductionLoop id="84_98_0_detector" lane="84_98_0" pos="-8" friendlyPos="true" file="output_loop_detector_202602031300.xml"/>
    <inductionLoop id="84_98_1_detector" lane="84_98_1" pos="-8" friendlyPos="true" file="output_loop_detector_202602031300.xml"/>
    <inductionLoop id="84_98_2_detector" lane="84_98_2" pos="-8" friendlyPos="true" file="output_loop_detector_202602031300.xml"/>
    <inductionLoop id="97_98_0_detector" lane="97_98_0" pos="-8" friendlyPos="true" file="output_loop_detector_202602031300.xml"/>
    <inductionLoop id="97_98_1_detector" lane="97_98_1" pos="-8" friendlyPos="true" file="output_loop_detector_202602031300.xml"/>
    <inductionLoop id="97_98_2_detector" lane="97_98_2" pos="-8" friendlyPos="true" file="output_loop_detector_202602031300.xml"/>
</additional>
