<?xml version="1.0" ?>
<edges>
    <edge id="87_31" from="87" to="31" numLanes="2" speed="20.1168" shape="-114.598166781338,34.967757266704 -114.598170117128,34.966191230582">
        <lane index="0" length="173.769739" speed="20.1168"/>
        <lane index="1" length="173.769739" speed="20.1168"/>
    </edge>
    <edge id="75_39" from="75" to="39" numLanes="3" speed="20.1168" shape="-114.598090025395,35.017850977030 -114.598076666984,35.026051986509">
        <lane index="0" length="910.003415" speed="20.1168"/>
        <lane index="1" length="910.003415" speed="20.1168"/>
        <lane index="2" length="910.003415" speed="20.1168"/>
    </edge>
    <edge id="106_39" from="106" to="39" numLanes="3" speed="20.1168" shape="-114.598096706668,35.026323979596 -114.598076666984,35.026051986509">
        <lane index="0" length="30.236367" speed="20.1168"/>
        <lane index="1" length="30.236367" speed="20.1168"/>
        <lane index="2" length="30.236367" speed="20.1168"/>
    </edge>
    <edge id="73_39" from="73" to="39" numLanes="2" speed="20.1168" shape="-114.598804773160,35.026060226540 -114.598076666984,35.026051986509">
        <lane index="0" length="66.465428" speed="20.1168"/>
        <lane index="1" length="66.465428" speed="20.1168"/>
    </edge>
    <edge id="74_39" from="74" to="39" numLanes="2" speed="20.1168" shape="-114.597134805086,35.026040993234 -114.598076666984,35.026051986509">
        <lane index="0" length="85.978758" speed="20.1168"/>
        <lane index="1" length="85.978758" speed="20.1168"/>
    </edge>
    <edge id="39_73" from="39" to="73" numLanes="1" speed="20.1168" shape="-114.598076666984,35.026051986509 -114.598804773160,35.026060226540">
        <lane index="0" length="66.465428" speed="20.1168"/>
    </edge>
    <edge id="39_74" from="39" to="74" numLanes="1" speed="20.1168" shape="-114.598076666984,35.026051986509 -114.597134805086,35.026040993234">
        <lane index="0" length="85.978758" speed="20.1168"/>
    </edge>
    <edge id="78_75" from="78" to="75" numLanes="3" speed="20.1168" shape="-114.598100042400,35.011512701794 -114.598090025395,35.017850977030">
        <lane index="0" length="703.309206" speed="20.1168"/>
        <lane index="1" length="703.309206" speed="20.1168"/>
        <lane index="2" length="703.309206" speed="20.1168"/>
    </edge>
    <edge id="39_75" from="39" to="75" numLanes="3" speed="20.1168" shape="-114.598076666984,35.026051986509 -114.598090025395,35.017850977030">
        <lane index="0" length="910.003415" speed="20.1168"/>
        <lane index="1" length="910.003415" speed="20.1168"/>
        <lane index="2" length="910.003415" speed="20.1168"/>
    </edge>
    <edge id="76_75" from="76" to="75" numLanes="2" speed="20.1168" shape="-114.598697833098,35.017850975441 -114.598090025395,35.017850977030">
        <lane index="0" length="55.48424" speed="20.1168"/>
        <lane index="1" length="55.48424" speed="20.1168"/>
    </edge>
    <edge id="77_75" from="77" to="75" numLanes="2" speed="20.1168" shape="-114.597388708837,35.017848227672 -114.598090025395,35.017850977030">
        <lane index="0" length="64.021024" speed="20.1168"/>
        <lane index="1" length="64.021024" speed="20.1168"/>
    </edge>
    <edge id="75_76" from="75" to="76" numLanes="1" speed="20.1168" shape="-114.598090025395,35.017850977030 -114.598697833098,35.017850975441">
        <lane index="0" length="55.48424" speed="20.1168"/>
    </edge>
    <edge id="75_77" from="75" to="77" numLanes="1" speed="20.1168" shape="-114.598090025395,35.017850977030 -114.597388708837,35.017848227672">
        <lane index="0" length="64.021024" speed="20.1168"/>
    </edge>
    <edge id="80_78" from="80" to="78" numLanes="3" speed="20.1168" shape="-114.598113396513,35.004204582539 -114.598100042400,35.011512701794">
        <lane index="0" length="810.924662" speed="20.1168"/>
        <lane index="1" length="810.924662" speed="20.1168"/>
        <lane index="2" length="810.924662" speed="20.1168"/>
    </edge>
    <edge id="75_78" from="75" to="78" numLanes="3" speed="20.1168" shape="-114.598090025395,35.017850977030 -114.598100042400,35.011512701794">
        <lane index="0" length="703.309206" speed="20.1168"/>
        <lane index="1" length="703.309206" speed="20.1168"/>
        <lane index="2" length="703.309206" speed="20.1168"/>
    </edge>
    <edge id="79_78" from="79" to="78" numLanes="2" speed="20.1168" shape="-114.597271884892,35.011504456893 -114.598100042400,35.011512701794">
        <lane index="0" length="75.610464" speed="20.1168"/>
        <lane index="1" length="75.610464" speed="20.1168"/>
    </edge>
    <edge id="78_79" from="78" to="79" numLanes="1" speed="20.1168" shape="-114.598100042400,35.011512701794 -114.597271884892,35.011504456893">
        <lane index="0" length="75.610464" speed="20.1168"/>
    </edge>
    <edge id="82_80" from="82" to="80" numLanes="2" speed="20.1168" shape="-114.598113393248,34.996896454472 -114.598113396513,35.004204582539">
        <lane index="0" length="810.923829" speed="20.1168"/>
        <lane index="1" length="810.923829" speed="20.1168"/>
    </edge>
    <edge id="78_80" from="78" to="80" numLanes="3" speed="20.1168" shape="-114.598100042400,35.011512701794 -114.598113396513,35.004204582539">
        <lane index="0" length="810.924662" speed="20.1168"/>
        <lane index="1" length="810.924662" speed="20.1168"/>
        <lane index="2" length="810.924662" speed="20.1168"/>
    </edge>
    <edge id="81_80" from="81" to="80" numLanes="1" speed="20.1168" shape="-114.597165107116,35.004179852388 -114.598113396513,35.004204582539">
        <lane index="0" length="86.623317" speed="20.1168"/>
    </edge>
    <edge id="80_81" from="80" to="81" numLanes="1" speed="20.1168" shape="-114.598113396513,35.004204582539 -114.597165107116,35.004179852388">
        <lane index="0" length="86.623317" speed="20.1168"/>
    </edge>
    <edge id="84_82" from="84" to="82" numLanes="2" speed="20.1168" shape="-114.598140092034,34.982346110079 -114.598113393248,34.996896454472">
        <lane index="0" length="1614.53314" speed="20.1168"/>
        <lane index="1" length="1614.53314" speed="20.1168"/>
    </edge>
    <edge id="80_82" from="80" to="82" numLanes="3" speed="20.1168" shape="-114.598113396513,35.004204582539 -114.598113393248,34.996896454472">
        <lane index="0" length="810.923829" speed="20.1168"/>
        <lane index="1" length="810.923829" speed="20.1168"/>
        <lane index="2" length="810.923829" speed="20.1168"/>
    </edge>
    <edge id="83_82" from="83" to="82" numLanes="1" speed="20.1168" shape="-114.596854683978,34.996899195746 -114.598113393248,34.996896454472">
        <lane index="0" length="114.932132" speed="20.1168"/>
    </edge>
    <edge id="82_83" from="82" to="83" numLanes="1" speed="20.1168" shape="-114.598113393248,34.996896454472 -114.596854683978,34.996899195746">
        <lane index="0" length="114.932132" speed="20.1168"/>
    </edge>
    <edge id="98_84" from="98" to="84" numLanes="4" speed="20.1168" shape="-114.598180145419,34.978735992762 -114.598140092034,34.982346110079">
        <lane index="0" length="400.600989" speed="20.1168"/>
        <lane index="1" length="400.600989" speed="20.1168"/>
        <lane index="2" length="400.600989" speed="20.1168"/>
        <lane index="3" length="400.600989" speed="20.1168"/>
    </edge>
    <edge id="82_84" from="82" to="84" numLanes="4" speed="20.1168" shape="-114.598113393248,34.996896454472 -114.598140092034,34.982346110079">
        <lane index="0" length="1614.53314" speed="20.1168"/>
        <lane index="1" length="1614.53314" speed="20.1168"/>
        <lane index="2" length="1614.53314" speed="20.1168"/>
        <lane index="3" length="1614.53314" speed="20.1168"/>
    </edge>
    <edge id="85_84" from="85" to="84" numLanes="3" speed="20.1168" shape="-114.598994661130,34.982346106625 -114.598140092034,34.982346110079">
        <lane index="0" length="78.0438" speed="20.1168"/>
        <lane index="1" length="78.0438" speed="20.1168"/>
        <lane index="2" length="78.0438" speed="20.1168"/>
    </edge>
    <edge id="86_84" from="86" to="84" numLanes="2" speed="20.1168" shape="-114.596981750293,34.982348852584 -114.598140092034,34.982346110079">
        <lane index="0" length="105.786424" speed="20.1168"/>
        <lane index="1" length="105.786424" speed="20.1168"/>
    </edge>
    <edge id="84_85" from="84" to="85" numLanes="2" speed="20.1168" shape="-114.598140092034,34.982346110079 -114.598994661130,34.982346106625">
        <lane index="0" length="78.0438" speed="20.1168"/>
        <lane index="1" length="78.0438" speed="20.1168"/>
    </edge>
    <edge id="84_86" from="84" to="86" numLanes="3" speed="20.1168" shape="-114.598140092034,34.982346110079 -114.596981750293,34.982348852584">
        <lane index="0" length="105.786424" speed="20.1168"/>
        <lane index="1" length="105.786424" speed="20.1168"/>
        <lane index="2" length="105.786424" speed="20.1168"/>
    </edge>
    <edge id="31_87" from="31" to="87" numLanes="3" speed="20.1168" shape="-114.598170117128,34.966191230582 -114.598166781338,34.967757266704">
        <lane index="0" length="173.769739" speed="20.1168"/>
        <lane index="1" length="173.769739" speed="20.1168"/>
        <lane index="2" length="173.769739" speed="20.1168"/>
    </edge>
    <edge id="98_87" from="98" to="87" numLanes="3" speed="20.1168" shape="-114.598180145419,34.978735992762 -114.598166781338,34.967757266704">
        <lane index="0" length="1218.215953" speed="20.1168"/>
        <lane index="1" length="1218.215953" speed="20.1168"/>
        <lane index="2" length="1218.215953" speed="20.1168"/>
    </edge>
    <edge id="88_87" from="88" to="87" numLanes="3" speed="20.1168" shape="-114.598834295094,34.967760011806 -114.598166781338,34.967757266704">
        <lane index="0" length="60.972496" speed="20.1168"/>
        <lane index="1" length="60.972496" speed="20.1168"/>
        <lane index="2" length="60.972496" speed="20.1168"/>
    </edge>
    <edge id="89_87" from="89" to="87" numLanes="3" speed="20.1168" shape="-114.596971931869,34.967749019419 -114.598166781338,34.967757266704">
        <lane index="0" length="109.143286" speed="20.1168"/>
        <lane index="1" length="109.143286" speed="20.1168"/>
        <lane index="2" length="109.143286" speed="20.1168"/>
    </edge>
    <edge id="87_88" from="87" to="88" numLanes="2" speed="20.1168" shape="-114.598166781338,34.967757266704 -114.598834295094,34.967760011806">
        <lane index="0" length="60.972496" speed="20.1168"/>
        <lane index="1" length="60.972496" speed="20.1168"/>
    </edge>
    <edge id="87_89" from="87" to="89" numLanes="2" speed="20.1168" shape="-114.598166781338,34.967757266704 -114.596971931869,34.967749019419">
        <lane index="0" length="109.143286" speed="20.1168"/>
        <lane index="1" length="109.143286" speed="20.1168"/>
    </edge>
    <edge id="98_97" from="98" to="97" numLanes="1" speed="20.1168" shape="-114.598180145419,34.978735992762 -114.599131478994,34.978703019107">
        <lane index="0" length="86.961683" speed="20.1168"/>
    </edge>
    <edge id="87_98" from="87" to="98" numLanes="3" speed="20.1168" shape="-114.598166781338,34.967757266704 -114.598180145419,34.978735992762">
        <lane index="0" length="1218.215953" speed="20.1168"/>
        <lane index="1" length="1218.215953" speed="20.1168"/>
        <lane index="2" length="1218.215953" speed="20.1168"/>
    </edge>
    <edge id="84_98" from="84" to="98" numLanes="3" speed="20.1168" shape="-114.598140092034,34.982346110079 -114.598180145419,34.978735992762">
        <lane index="0" length="400.600989" speed="20.1168"/>
        <lane index="1" length="400.600989" speed="20.1168"/>
        <lane index="2" length="400.600989" speed="20.1168"/>
    </edge>
    <edge id="97_98" from="97" to="98" numLanes="3" speed="20.1168" shape="-114.599131478994,34.978703019107 -114.598180145419,34.978735992762">
        <lane index="0" length="86.961683" speed="20.1168"/>
        <lane index="1" length="86.961683" speed="20.1168"/>
        <lane index="2" length="86.961683" speed="20.1168"/>
    </edge>
    <edge id="39_106" from="39" to="106" numLanes="2" speed="20.1168" shape="-114.598076666984,35.026051986509 -114.598096706668,35.026323979596">
        <lane index="0" length="30.236367" speed="20.1168"/>
        <lane index="1" length="30.236367" speed="20.1168"/>
    </edge>
</edges>
