<?xml version='1.0' encoding='utf-8'?>
<net xmlns:xsi="http://www.w3.org/2001/XMLSchema-instance" version="1.20" junctionCornerDetail="5" limitTurnSpeed="5.50" xsi:noNamespaceSchemaLocation="http://sumo.dlr.de/xsd/net_file.xsd">

    <location netOffset="-719065.61,-3871928.75" convBoundary="0.00,0.00,322.93,6670.67" origBoundary="-114.599131,34.966191,-114.596855,35.026324" projParameter="+proj=utm +zone=11 +ellps=WGS84 +datum=WGS84 +units=m +no_defs" />

    <edge id=":106_0" function="internal">
        <lane id=":106_0_0" index="0" speed="3.65" length="4.67" shape="65.50,6670.81 64.60,6671.93 63.77,6672.27 63.01,6671.80 62.31,6670.54" />
    </edge>
    <edge id=":31_0" function="internal">
        <lane id=":31_0_0" index="0" speed="3.65" length="4.67" shape="216.08,-0.04 216.90,-1.22 217.71,-1.60 218.50,-1.18 219.27,0.04" />
    </edge>
    <edge id=":39_0" function="internal">
        <lane id=":39_0_0" index="0" speed="7.67" length="12.21" shape="80.06,6645.48 76.01,6645.78 73.05,6646.78 71.18,6648.47 70.40,6650.85" />
    </edge>
    <edge id=":39_1" function="internal">
        <lane id=":39_1_0" index="0" speed="20.12" length="27.71" shape="80.06,6645.48 72.25,6644.90 64.44,6643.72 57.58,6642.55 52.58,6642.00" />
    </edge>
    <edge id=":39_2" function="internal">
        <lane id=":39_2_0" index="0" speed="9.77" length="9.00" shape="80.09,6642.28 73.43,6641.47 71.36,6640.47" />
    </edge>
    <edge id=":39_14" function="internal">
        <lane id=":39_14_0" index="0" speed="9.77" length="12.90" shape="71.36,6640.47 68.71,6639.19 65.93,6635.44 65.10,6630.23" />
    </edge>
    <edge id=":39_3" function="internal">
        <lane id=":39_3_0" index="0" speed="7.23" length="11.51" shape="74.69,6630.45 74.96,6634.20 75.95,6636.89 77.67,6638.52 80.12,6639.08" />
    </edge>
    <edge id=":39_4" function="internal">
        <lane id=":39_4_0" index="0" speed="20.12" length="20.84" shape="74.69,6630.45 74.04,6636.63 72.78,6640.82 71.40,6644.93 70.40,6650.85" />
        <lane id=":39_4_1" index="1" speed="20.12" length="20.84" shape="71.49,6630.37 70.85,6636.49 69.58,6640.61 68.21,6644.67 67.22,6650.58" />
    </edge>
    <edge id=":39_6" function="internal">
        <lane id=":39_6_0" index="0" speed="9.92" length="10.02" shape="68.30,6630.30 67.21,6635.48 64.23,6639.16" />
    </edge>
    <edge id=":39_15" function="internal">
        <lane id=":39_15_0" index="0" speed="9.92" length="12.15" shape="64.23,6639.16 59.36,6641.33 52.58,6642.00" />
    </edge>
    <edge id=":39_7" function="internal">
        <lane id=":39_7_0" index="0" speed="6.63" length="9.31" shape="52.65,6635.60 55.25,6635.28 57.12,6634.25 58.27,6632.52 58.70,6630.08" />
    </edge>
    <edge id=":39_8" function="internal">
        <lane id=":39_8_0" index="0" speed="20.12" length="27.71" shape="52.65,6635.60 60.46,6636.18 68.26,6637.36 75.12,6638.53 80.12,6639.08" />
    </edge>
    <edge id=":39_9" function="internal">
        <lane id=":39_9_0" index="0" speed="9.51" length="9.26" shape="52.61,6638.80 59.37,6639.60 61.59,6640.65" />
    </edge>
    <edge id=":39_16" function="internal">
        <lane id=":39_16_0" index="0" speed="9.51" length="12.36" shape="61.59,6640.65 64.06,6641.83 66.67,6645.49 67.22,6650.58" />
    </edge>
    <edge id=":39_10" function="internal">
        <lane id=":39_10_0" index="0" speed="6.85" length="10.68" shape="57.65,6649.77 57.58,6646.39 56.71,6643.97 55.04,6642.51 52.58,6642.00" />
    </edge>
    <edge id=":39_11" function="internal">
        <lane id=":39_11_0" index="0" speed="20.12" length="19.81" shape="57.65,6649.77 58.70,6630.08" />
        <lane id=":39_11_1" index="1" speed="20.12" length="19.81" shape="60.84,6650.04 61.90,6630.16" />
    </edge>
    <edge id=":39_13" function="internal">
        <lane id=":39_13_0" index="0" speed="10.10" length="5.30" shape="64.03,6650.31 65.40,6645.34 65.49,6645.23" />
    </edge>
    <edge id=":39_17" function="internal">
        <lane id=":39_17_0" index="0" speed="10.10" length="16.62" shape="65.49,6645.23 68.53,6641.81 73.44,6639.72 80.12,6639.08" />
    </edge>
    <edge id=":73_0" function="internal">
        <lane id=":73_0_0" index="0" speed="3.65" length="4.67" shape="-0.02,6641.46 -1.21,6640.65 -1.60,6639.84 -1.19,6639.05 0.02,6638.26" />
    </edge>
    <edge id=":74_0" function="internal">
        <lane id=":74_0_0" index="0" speed="3.65" length="4.67" shape="152.45,6639.79 153.64,6640.61 154.04,6641.41 153.63,6642.21 152.42,6642.99" />
    </edge>
    <edge id=":75_0" function="internal">
        <lane id=":75_0_0" index="0" speed="6.52" length="9.06" shape="100.66,5735.84 98.19,5736.14 96.41,5737.15 95.31,5738.88 94.90,5741.32" />
    </edge>
    <edge id=":75_1" function="internal">
        <lane id=":75_1_0" index="0" speed="20.12" length="27.44" shape="100.66,5735.84 92.90,5735.18 85.20,5733.91 78.45,5732.66 73.50,5732.05" />
    </edge>
    <edge id=":75_2" function="internal">
        <lane id=":75_2_0" index="0" speed="9.83" length="9.01" shape="100.72,5732.64 94.08,5731.76 92.01,5730.72" />
    </edge>
    <edge id=":75_14" function="internal">
        <lane id=":75_14_0" index="0" speed="9.83" length="12.99" shape="92.01,5730.72 89.38,5729.41 86.61,5725.60 85.78,5720.33" />
    </edge>
    <edge id=":75_3" function="internal">
        <lane id=":75_3_0" index="0" speed="7.31" length="11.71" shape="95.38,5720.55 95.64,5724.40 96.63,5727.16 98.34,5728.84 100.78,5729.44" />
    </edge>
    <edge id=":75_4" function="internal">
        <lane id=":75_4_0" index="0" speed="20.12" length="20.78" shape="95.38,5720.55 94.90,5741.32" />
        <lane id=":75_4_1" index="1" speed="20.12" length="20.78" shape="92.18,5720.47 91.71,5741.25" />
    </edge>
    <edge id=":75_6" function="internal">
        <lane id=":75_6_0" index="0" speed="9.84" length="9.86" shape="88.98,5720.40 87.91,5725.63 85.09,5729.17" />
    </edge>
    <edge id=":75_15" function="internal">
        <lane id=":75_15_0" index="0" speed="9.84" length="12.15" shape="85.09,5729.17 84.97,5729.32 80.17,5731.46 73.50,5732.05" />
    </edge>
    <edge id=":75_7" function="internal">
        <lane id=":75_7_0" index="0" speed="6.50" length="9.03" shape="73.65,5725.65 76.11,5725.36 77.89,5724.35 78.98,5722.62 79.38,5720.18" />
    </edge>
    <edge id=":75_8" function="internal">
        <lane id=":75_8_0" index="0" speed="20.12" length="27.41" shape="73.65,5725.65 81.41,5726.33 89.09,5727.60 95.84,5728.84 100.78,5729.44" />
    </edge>
    <edge id=":75_9" function="internal">
        <lane id=":75_9_0" index="0" speed="9.84" length="8.97" shape="73.58,5728.85 80.21,5729.76 82.24,5730.78" />
    </edge>
    <edge id=":75_16" function="internal">
        <lane id=":75_16_0" index="0" speed="9.84" length="13.01" shape="82.24,5730.78 84.91,5732.11 87.68,5735.92 88.51,5741.18" />
    </edge>
    <edge id=":75_10" function="internal">
        <lane id=":75_10_0" index="0" speed="7.33" length="11.72" shape="78.91,5740.96 78.65,5737.11 77.66,5734.34 75.94,5732.65 73.50,5732.05" />
    </edge>
    <edge id=":75_11" function="internal">
        <lane id=":75_11_0" index="0" speed="20.12" length="20.78" shape="78.91,5740.96 79.38,5720.18" />
        <lane id=":75_11_1" index="1" speed="20.12" length="20.78" shape="82.11,5741.03 82.58,5720.26" />
    </edge>
    <edge id=":75_13" function="internal">
        <lane id=":75_13_0" index="0" speed="9.85" length="9.84" shape="85.31,5741.10 86.38,5735.89 89.19,5732.36" />
    </edge>
    <edge id=":75_17" function="internal">
        <lane id=":75_17_0" index="0" speed="9.85" length="12.15" shape="89.19,5732.36 89.31,5732.21 94.11,5730.06 100.78,5729.44" />
    </edge>
    <edge id=":76_0" function="internal">
        <lane id=":76_0_0" index="0" speed="3.65" length="4.67" shape="31.64,5731.04 30.46,5730.21 30.07,5729.40 30.49,5728.61 31.71,5727.84" />
    </edge>
    <edge id=":77_0" function="internal">
        <lane id=":77_0_0" index="0" speed="3.65" length="4.67" shape="151.18,5730.41 152.37,5731.23 152.75,5732.04 152.34,5732.83 151.12,5733.61" />
    </edge>
    <edge id=":78_0" function="internal">
        <lane id=":78_0_0" index="0" speed="6.56" length="9.11" shape="116.73,5032.61 114.23,5032.93 112.43,5033.95 111.33,5035.69 110.91,5038.12" />
    </edge>
    <edge id=":78_1" function="internal">
        <lane id=":78_1_0" index="0" speed="10.39" length="24.85" shape="116.73,5032.61 108.66,5031.75 102.93,5029.41 99.55,5025.57 98.52,5020.24" />
        <lane id=":78_1_1" index="1" speed="9.30" length="19.70" shape="116.77,5029.41 110.11,5028.77 105.38,5027.04 102.58,5024.22 101.72,5020.31" />
    </edge>
    <edge id=":78_3" function="internal">
        <lane id=":78_3_0" index="0" speed="6.48" length="9.03" shape="111.31,5020.53 111.61,5022.99 112.62,5024.76 114.35,5025.83 116.80,5026.21" />
    </edge>
    <edge id=":78_4" function="internal">
        <lane id=":78_4_0" index="0" speed="20.12" length="17.60" shape="111.31,5020.53 110.91,5038.12" />
        <lane id=":78_4_1" index="1" speed="20.12" length="17.60" shape="108.11,5020.46 107.72,5038.05" />
        <lane id=":78_4_2" index="2" speed="20.12" length="17.60" shape="104.91,5020.38 104.52,5037.98" />
    </edge>
    <edge id=":78_7" function="internal">
        <lane id=":78_7_0" index="0" speed="20.12" length="17.60" shape="94.92,5037.76 95.32,5020.17" />
        <lane id=":78_7_1" index="1" speed="20.12" length="17.60" shape="98.12,5037.83 98.52,5020.24" />
    </edge>
    <edge id=":78_9" function="internal">
        <lane id=":78_9_0" index="0" speed="9.88" length="3.98" shape="101.32,5037.91 102.12,5034.01" />
    </edge>
    <edge id=":78_10" function="internal">
        <lane id=":78_10_0" index="0" speed="9.88" length="18.00" shape="102.12,5034.01 102.39,5032.72 105.32,5029.04 110.13,5026.87 116.80,5026.21" />
    </edge>
    <edge id=":79_0" function="internal">
        <lane id=":79_0_0" index="0" speed="3.65" length="4.67" shape="178.77,5026.95 179.97,5027.77 180.36,5028.57 179.95,5029.37 178.74,5030.15" />
    </edge>
    <edge id=":80_0" function="internal">
        <lane id=":80_0_0" index="0" speed="6.58" length="9.03" shape="134.96,4218.43 132.52,4218.79 130.76,4219.85 129.68,4221.59 129.28,4224.02" />
    </edge>
    <edge id=":80_1" function="internal">
        <lane id=":80_1_0" index="0" speed="9.21" length="19.61" shape="134.96,4218.43 128.34,4217.91 123.65,4216.25 120.87,4213.44 120.02,4209.49" />
    </edge>
    <edge id=":80_2" function="internal">
        <lane id=":80_2_0" index="0" speed="7.19" length="11.54" shape="126.42,4209.64 126.90,4212.11 128.48,4213.86 131.16,4214.90 134.94,4215.23" />
    </edge>
    <edge id=":80_3" function="internal">
        <lane id=":80_3_0" index="0" speed="20.12" length="14.78" shape="126.42,4209.64 126.81,4213.95 127.85,4216.83 128.88,4219.71 129.28,4224.02" />
        <lane id=":80_3_1" index="1" speed="20.12" length="14.78" shape="123.22,4209.57 123.61,4213.87 124.65,4216.76 125.68,4219.64 126.08,4223.95" />
    </edge>
    <edge id=":80_5" function="internal">
        <lane id=":80_5_0" index="0" speed="20.12" length="14.33" shape="113.29,4223.66 113.62,4209.33" />
        <lane id=":80_5_1" index="1" speed="20.12" length="14.33" shape="116.49,4223.73 116.82,4209.41" />
    </edge>
    <edge id=":80_7" function="internal">
        <lane id=":80_7_0" index="0" speed="9.38" length="6.47" shape="119.68,4223.80 120.71,4220.09 122.63,4218.32" />
    </edge>
    <edge id=":80_8" function="internal">
        <lane id=":80_8_0" index="0" speed="9.38" length="12.95" shape="122.63,4218.32 123.59,4217.43 128.33,4215.81 134.94,4215.23" />
    </edge>
    <edge id=":81_0" function="internal">
        <lane id=":81_0_0" index="0" speed="3.65" length="4.67" shape="208.05,4214.67 209.25,4215.46 209.66,4216.26 209.27,4217.06 208.07,4217.87" />
    </edge>
    <edge id=":82_0" function="internal">
        <lane id=":82_0_0" index="0" speed="6.50" length="9.03" shape="151.31,3408.12 148.85,3408.40 147.07,3409.41 145.98,3411.13 145.57,3413.57" />
    </edge>
    <edge id=":82_1" function="internal">
        <lane id=":82_1_0" index="0" speed="8.68" length="16.85" shape="151.31,3408.12 146.07,3407.43 142.36,3405.69 140.17,3402.89 139.51,3399.03" />
    </edge>
    <edge id=":82_2" function="internal">
        <lane id=":82_2_0" index="0" speed="6.52" length="9.05" shape="145.91,3399.18 146.20,3401.63 147.21,3403.41 148.94,3404.50 151.39,3404.92" />
    </edge>
    <edge id=":82_3" function="internal">
        <lane id=":82_3_0" index="0" speed="20.12" length="14.40" shape="145.91,3399.18 145.57,3413.57" />
        <lane id=":82_3_1" index="1" speed="20.12" length="14.40" shape="142.71,3399.10 142.37,3413.49" />
    </edge>
    <edge id=":82_5" function="internal">
        <lane id=":82_5_0" index="0" speed="20.12" length="14.84" shape="132.77,3413.26 132.38,3408.94 131.35,3406.04 130.31,3403.14 129.91,3398.82" />
        <lane id=":82_5_1" index="1" speed="20.12" length="14.84" shape="135.97,3413.34 135.58,3409.01 134.55,3406.11 133.51,3403.22 133.11,3398.89" />
    </edge>
    <edge id=":82_7" function="internal">
        <lane id=":82_7_0" index="0" speed="8.67" length="3.71" shape="139.17,3413.42 139.97,3409.79" />
    </edge>
    <edge id=":82_8" function="internal">
        <lane id=":82_8_0" index="0" speed="8.67" length="13.15" shape="139.97,3409.79 140.02,3409.58 142.33,3406.88 146.13,3405.33 151.39,3404.92" />
    </edge>
    <edge id=":83_0" function="internal">
        <lane id=":83_0_0" index="0" speed="3.65" length="4.67" shape="255.88,3407.71 257.06,3408.54 257.44,3409.35 257.01,3410.14 255.79,3410.91" />
    </edge>
    <edge id=":84_0" function="internal">
        <lane id=":84_0_0" index="0" speed="8.05" length="14.44" shape="193.88,1797.36 188.68,1797.58 184.95,1798.53 182.69,1800.22 181.89,1802.65" />
    </edge>
    <edge id=":84_1" function="internal">
        <lane id=":84_1_0" index="0" speed="20.12" length="33.47" shape="193.88,1797.36 160.43,1796.51" />
        <lane id=":84_1_1" index="1" speed="20.12" length="33.47" shape="193.97,1794.17 160.51,1793.31" />
    </edge>
    <edge id=":84_3" function="internal">
        <lane id=":84_3_0" index="0" speed="10.94" length="5.90" shape="193.97,1794.17 188.13,1793.31" />
    </edge>
    <edge id=":84_19" function="internal">
        <lane id=":84_19_0" index="0" speed="10.94" length="21.28" shape="188.13,1793.31 185.99,1793.00 180.33,1789.98 176.98,1785.12 175.93,1778.41" />
    </edge>
    <edge id=":84_4" function="internal">
        <lane id=":84_4_0" index="0" speed="6.60" length="9.23" shape="188.73,1778.60 189.04,1781.15 190.06,1783.00 191.79,1784.14 194.23,1784.57" />
    </edge>
    <edge id=":84_5" function="internal">
        <lane id=":84_5_0" index="0" speed="20.12" length="24.94" shape="188.73,1778.60 187.62,1786.22 185.33,1791.56 183.03,1796.43 181.89,1802.65" />
        <lane id=":84_5_1" index="1" speed="20.12" length="24.94" shape="185.53,1778.55 184.42,1786.17 182.13,1791.50 179.83,1796.36 178.69,1802.58" />
        <lane id=":84_5_2" index="2" speed="20.12" length="24.94" shape="182.33,1778.50 181.72,1785.99 180.53,1791.36 179.33,1796.31 178.69,1802.58" />
    </edge>
    <edge id=":84_8" function="internal">
        <lane id=":84_8_0" index="0" speed="10.85" length="6.64" shape="179.13,1778.45 177.91,1784.98" />
    </edge>
    <edge id=":84_20" function="internal">
        <lane id=":84_20_0" index="0" speed="10.85" length="20.52" shape="177.91,1784.98 177.88,1785.12 174.36,1789.82 168.57,1792.55 160.51,1793.31" />
    </edge>
    <edge id=":84_9" function="internal">
        <lane id=":84_9_0" index="0" speed="7.28" length="11.64" shape="160.74,1783.72 164.55,1783.46 167.29,1782.47 168.95,1780.75 169.54,1778.31" />
    </edge>
    <edge id=":84_10" function="internal">
        <lane id=":84_10_0" index="0" speed="20.12" length="33.49" shape="160.74,1783.72 194.23,1784.57" />
        <lane id=":84_10_1" index="1" speed="20.12" length="33.49" shape="160.66,1786.91 194.14,1787.77" />
        <lane id=":84_10_2" index="2" speed="20.12" length="33.49" shape="160.58,1790.11 194.05,1790.97" />
    </edge>
    <edge id=":84_13" function="internal">
        <lane id=":84_13_0" index="0" speed="10.42" length="7.68" shape="160.58,1790.11 168.22,1791.01" />
    </edge>
    <edge id=":84_21" function="internal">
        <lane id=":84_21_0" index="0" speed="10.42" length="17.06" shape="168.22,1791.01 168.61,1791.06 174.30,1793.45 177.66,1797.29 178.69,1802.58" />
    </edge>
    <edge id=":84_14" function="internal">
        <lane id=":84_14_0" index="0" speed="6.52" length="9.07" shape="165.90,1802.29 165.60,1799.81 164.59,1798.02 162.87,1796.92 160.43,1796.51" />
    </edge>
    <edge id=":84_15" function="internal">
        <lane id=":84_15_0" index="0" speed="20.12" length="24.35" shape="165.90,1802.29 166.56,1795.13 167.75,1790.30 168.93,1785.47 169.54,1778.31" />
        <lane id=":84_15_1" index="1" speed="20.12" length="24.35" shape="169.10,1802.36 169.76,1795.20 170.95,1790.36 172.13,1785.52 172.73,1778.36" />
        <lane id=":84_15_2" index="2" speed="20.12" length="24.35" shape="172.30,1802.43 172.95,1795.26 174.15,1790.42 175.33,1785.58 175.93,1778.41" />
    </edge>
    <edge id=":84_18" function="internal">
        <lane id=":84_18_0" index="0" speed="10.37" length="5.15" shape="175.50,1802.51 176.70,1797.50" />
    </edge>
    <edge id=":84_22" function="internal">
        <lane id=":84_22_0" index="0" speed="10.37" length="19.48" shape="176.70,1797.50 176.76,1797.27 180.27,1793.61 186.04,1791.50 194.05,1790.97" />
    </edge>
    <edge id=":85_0" function="internal">
        <lane id=":85_0_0" index="0" speed="3.65" length="4.67" shape="99.27,1791.84 98.09,1791.01 97.71,1790.20 98.13,1789.41 99.35,1788.64" />
    </edge>
    <edge id=":86_0" function="internal">
        <lane id=":86_0_0" index="0" speed="3.65" length="4.67" shape="283.12,1793.37 284.30,1794.20 284.68,1795.01 284.26,1795.80 283.04,1796.56" />
    </edge>
    <edge id=":87_0" function="internal">
        <lane id=":87_0_0" index="0" speed="6.56" length="9.14" shape="227.32,181.94 224.81,182.25 223.00,183.27 221.88,185.00 221.46,187.43" />
    </edge>
    <edge id=":87_1" function="internal">
        <lane id=":87_1_0" index="0" speed="20.12" length="27.53" shape="227.32,181.94 218.67,181.30 212.29,180.09 206.62,178.89 200.08,178.27" />
        <lane id=":87_1_1" index="1" speed="20.12" length="27.53" shape="227.37,178.74 218.73,178.10 212.35,176.89 206.68,175.69 200.14,175.07" />
    </edge>
    <edge id=":87_3" function="internal">
        <lane id=":87_3_0" index="0" speed="10.34" length="7.18" shape="227.42,175.54 220.77,174.49 220.39,174.25" />
    </edge>
    <edge id=":87_16" function="internal">
        <lane id=":87_16_0" index="0" speed="10.34" length="17.32" shape="220.39,174.25 216.07,171.56 213.31,166.77 212.51,160.12" />
    </edge>
    <edge id=":87_4" function="internal">
        <lane id=":87_4_0" index="0" speed="7.29" length="11.65" shape="222.10,160.33 222.37,164.15 223.36,166.89 225.08,168.56 227.52,169.14" />
    </edge>
    <edge id=":87_5" function="internal">
        <lane id=":87_5_0" index="0" speed="20.12" length="27.11" shape="222.10,160.33 221.46,187.43" />
        <lane id=":87_5_1" index="1" speed="20.12" length="27.11" shape="218.91,160.26 218.26,187.35" />
    </edge>
    <edge id=":87_7" function="internal">
        <lane id=":87_7_0" index="0" speed="10.38" length="7.14" shape="215.71,160.19 214.61,166.81 214.37,167.17" />
    </edge>
    <edge id=":87_17" function="internal">
        <lane id=":87_17_0" index="0" speed="10.38" length="17.40" shape="214.37,167.17 211.64,171.49 206.82,174.25 200.14,175.07" />
    </edge>
    <edge id=":87_8" function="internal">
        <lane id=":87_8_0" index="0" speed="7.35" length="11.79" shape="200.32,165.47 204.21,165.19 207.00,164.20 208.70,162.48 209.31,160.04" />
    </edge>
    <edge id=":87_9" function="internal">
        <lane id=":87_9_0" index="0" speed="20.12" length="27.50" shape="200.32,165.47 208.95,166.13 215.32,167.34 220.98,168.54 227.52,169.14" />
        <lane id=":87_9_1" index="1" speed="20.12" length="27.50" shape="200.26,168.67 208.90,169.33 215.26,170.54 220.93,171.74 227.47,172.34" />
    </edge>
    <edge id=":87_11" function="internal">
        <lane id=":87_11_0" index="0" speed="10.33" length="7.19" shape="200.20,171.87 206.84,172.94 207.23,173.18" />
    </edge>
    <edge id=":87_18" function="internal">
        <lane id=":87_18_0" index="0" speed="10.33" length="17.26" shape="207.23,173.18 211.54,175.86 214.28,180.64 215.07,187.27" />
    </edge>
    <edge id=":87_12" function="internal">
        <lane id=":87_12_0" index="0" speed="7.27" length="11.59" shape="205.47,187.03 205.21,183.24 204.23,180.51 202.52,178.85 200.08,178.27" />
    </edge>
    <edge id=":87_13" function="internal">
        <lane id=":87_13_0" index="0" speed="20.12" length="27.31" shape="205.47,187.03 206.18,178.47 207.43,172.18 208.66,166.56 209.31,160.04" />
        <lane id=":87_13_1" index="1" speed="20.12" length="27.31" shape="208.67,187.11 209.38,178.55 210.63,172.25 211.86,166.63 212.51,160.12" />
    </edge>
    <edge id=":87_15" function="internal">
        <lane id=":87_15_0" index="0" speed="10.40" length="12.01" shape="211.87,187.19 212.98,180.61 215.84,176.11" />
    </edge>
    <edge id=":87_19" function="internal">
        <lane id=":87_19_0" index="0" speed="10.40" length="12.51" shape="215.84,176.11 215.96,175.93 220.79,173.18 227.47,172.34" />
    </edge>
    <edge id=":88_0" function="internal">
        <lane id=":88_0_0" index="0" speed="3.65" length="4.67" shape="152.81,174.17 151.63,173.34 151.24,172.54 151.66,171.74 152.87,170.97" />
    </edge>
    <edge id=":89_0" function="internal">
        <lane id=":89_0_0" index="0" speed="3.65" length="4.67" shape="322.96,173.84 324.15,174.65 324.53,175.46 324.12,176.25 322.91,177.04" />
    </edge>
    <edge id=":97_0" function="internal">
        <lane id=":97_0_0" index="0" speed="3.65" length="4.67" shape="96.43,1387.41 95.28,1386.53 94.94,1385.71 95.39,1384.94 96.64,1384.22" />
    </edge>
    <edge id=":98_0" function="internal">
        <lane id=":98_0_0" index="0" speed="20.12" length="20.95" shape="191.65,1377.76 191.99,1383.93 192.99,1388.10 194.00,1392.28 194.40,1398.44" />
        <lane id=":98_0_1" index="1" speed="20.12" length="20.95" shape="188.45,1377.68 188.79,1383.85 189.79,1388.04 190.80,1392.22 191.20,1398.39" />
    </edge>
    <edge id=":98_2" function="internal">
        <lane id=":98_2_0" index="0" speed="10.30" length="4.88" shape="185.25,1377.60 184.44,1382.41" />
    </edge>
    <edge id=":98_11" function="internal">
        <lane id=":98_11_0" index="0" speed="10.30" length="20.10" shape="184.44,1382.41 184.10,1384.39 181.05,1389.09 176.09,1391.71 169.23,1392.23" />
    </edge>
    <edge id=":98_3" function="internal">
        <lane id=":98_3_0" index="0" speed="6.42" length="9.04" shape="169.86,1382.65 172.34,1382.46 174.14,1381.52 175.24,1379.82 175.66,1377.36" />
    </edge>
    <edge id=":98_4" function="internal">
        <lane id=":98_4_0" index="0" speed="11.57" length="29.59" shape="169.86,1382.65 179.28,1384.17 185.97,1387.30 189.95,1392.04 191.20,1398.39" />
        <lane id=":98_4_1" index="1" speed="10.59" length="24.66" shape="169.65,1385.85 177.74,1387.09 183.50,1389.58 186.92,1393.34 188.00,1398.34" />
        <lane id=":98_4_2" index="2" speed="9.53" length="19.76" shape="169.44,1389.04 176.21,1390.00 181.02,1391.87 183.89,1394.63 184.80,1398.30" />
    </edge>
    <edge id=":98_7" function="internal">
        <lane id=":98_7_0" index="0" speed="6.77" length="9.48" shape="175.20,1398.15 174.86,1395.71 173.75,1393.91 171.87,1392.75 169.23,1392.23" />
    </edge>
    <edge id=":98_8" function="internal">
        <lane id=":98_8_0" index="0" speed="20.12" length="20.76" shape="175.20,1398.15 175.66,1377.36" />
        <lane id=":98_8_1" index="1" speed="20.12" length="20.76" shape="178.40,1398.20 178.86,1377.44" />
        <lane id=":98_8_2" index="2" speed="20.12" length="20.76" shape="181.60,1398.25 182.05,1377.52" />
    </edge>

    <edge id="106_39" from="106" to="39" priority="-1">
        <lane id="106_39_0" index="0" speed="20.12" length="20.30" shape="55.94,6670.00 57.65,6649.77" />
        <lane id="106_39_1" index="1" speed="20.12" length="20.30" shape="59.12,6670.27 60.84,6650.04" />
        <lane id="106_39_2" index="2" speed="20.12" length="20.30" shape="62.31,6670.54 64.03,6650.31" />
    </edge>
    <edge id="31_87" from="31" to="87" priority="-1">
        <lane id="31_87_0" index="0" speed="20.12" length="160.19" shape="225.67,0.18 222.10,160.33" />
        <lane id="31_87_1" index="1" speed="20.12" length="160.19" shape="222.47,0.11 218.91,160.26" />
        <lane id="31_87_2" index="2" speed="20.12" length="160.19" shape="219.27,0.04 215.71,160.19" />
    </edge>
    <edge id="39_106" from="39" to="106" priority="-1">
        <lane id="39_106_0" index="0" speed="20.12" length="20.30" shape="70.40,6650.85 68.69,6671.08" />
        <lane id="39_106_1" index="1" speed="20.12" length="20.30" shape="67.22,6650.58 65.50,6670.81" />
    </edge>
    <edge id="39_73" from="39" to="73" priority="-1">
        <lane id="39_73_0" index="0" speed="20.12" length="52.60" shape="52.58,6642.00 -0.02,6641.46" />
    </edge>
    <edge id="39_74" from="39" to="74" priority="-1">
        <lane id="39_74_0" index="0" speed="20.12" length="72.34" shape="80.12,6639.08 152.45,6639.79" />
    </edge>
    <edge id="39_75" from="39" to="75" priority="-1">
        <lane id="39_75_0" index="0" speed="20.12" length="889.35" shape="58.70,6630.08 78.91,5740.96" />
        <lane id="39_75_1" index="1" speed="20.12" length="889.35" shape="61.90,6630.16 82.11,5741.03" />
        <lane id="39_75_2" index="2" speed="20.12" length="889.35" shape="65.10,6630.23 85.31,5741.10" />
    </edge>
    <edge id="73_39" from="73" to="39" priority="-1">
        <lane id="73_39_0" index="0" speed="20.12" length="52.60" shape="0.05,6635.06 52.65,6635.60" />
        <lane id="73_39_1" index="1" speed="20.12" length="52.60" shape="0.02,6638.26 52.61,6638.80" />
    </edge>
    <edge id="74_39" from="74" to="39" priority="-1">
        <lane id="74_39_0" index="0" speed="20.12" length="72.34" shape="152.39,6646.19 80.06,6645.48" />
        <lane id="74_39_1" index="1" speed="20.12" length="72.34" shape="152.42,6642.99 80.09,6642.28" />
    </edge>
    <edge id="75_39" from="75" to="39" priority="-1">
        <lane id="75_39_0" index="0" speed="20.12" length="889.35" shape="94.90,5741.32 74.69,6630.45" />
        <lane id="75_39_1" index="1" speed="20.12" length="889.35" shape="91.71,5741.25 71.49,6630.37" />
        <lane id="75_39_2" index="2" speed="20.12" length="889.35" shape="88.51,5741.18 68.30,6630.30" />
    </edge>
    <edge id="75_76" from="75" to="76" priority="-1">
        <lane id="75_76_0" index="0" speed="20.12" length="41.88" shape="73.50,5732.05 31.64,5731.04" />
    </edge>
    <edge id="75_77" from="75" to="77" priority="-1">
        <lane id="75_77_0" index="0" speed="20.12" length="50.41" shape="100.78,5729.44 151.18,5730.41" />
    </edge>
    <edge id="75_78" from="75" to="78" priority="-1">
        <lane id="75_78_0" index="0" speed="20.12" length="682.60" shape="79.38,5720.18 94.92,5037.76" />
        <lane id="75_78_1" index="1" speed="20.12" length="682.60" shape="82.58,5720.26 98.12,5037.83" />
        <lane id="75_78_2" index="2" speed="20.12" length="682.60" shape="85.78,5720.33 101.32,5037.91" />
    </edge>
    <edge id="76_75" from="76" to="75" priority="-1">
        <lane id="76_75_0" index="0" speed="20.12" length="41.88" shape="31.79,5724.64 73.65,5725.65" />
        <lane id="76_75_1" index="1" speed="20.12" length="41.88" shape="31.71,5727.84 73.58,5728.85" />
    </edge>
    <edge id="77_75" from="77" to="75" priority="-1">
        <lane id="77_75_0" index="0" speed="20.12" length="50.41" shape="151.06,5736.81 100.66,5735.84" />
        <lane id="77_75_1" index="1" speed="20.12" length="50.41" shape="151.12,5733.61 100.72,5732.64" />
    </edge>
    <edge id="78_75" from="78" to="75" priority="-1">
        <lane id="78_75_0" index="0" speed="20.12" length="682.60" shape="110.91,5038.12 95.38,5720.55" />
        <lane id="78_75_1" index="1" speed="20.12" length="682.60" shape="107.72,5038.05 92.18,5720.47" />
        <lane id="78_75_2" index="2" speed="20.12" length="682.60" shape="104.52,5037.98 88.98,5720.40" />
    </edge>
    <edge id="78_79" from="78" to="79" priority="-1">
        <lane id="78_79_0" index="0" speed="20.12" length="61.98" shape="116.80,5026.21 178.77,5026.95" />
    </edge>
    <edge id="78_80" from="78" to="80" priority="-1">
        <lane id="78_80_0" index="0" speed="20.12" length="796.71" shape="95.32,5020.17 113.29,4223.66" />
        <lane id="78_80_1" index="1" speed="20.12" length="796.71" shape="98.52,5020.24 116.49,4223.73" />
        <lane id="78_80_2" index="2" speed="20.12" length="796.71" shape="101.72,5020.31 119.68,4223.80" />
    </edge>
    <edge id="79_78" from="79" to="78" priority="-1">
        <lane id="79_78_0" index="0" speed="20.12" length="61.98" shape="178.70,5033.35 116.73,5032.61" />
        <lane id="79_78_1" index="1" speed="20.12" length="61.98" shape="178.74,5030.15 116.77,5029.41" />
    </edge>
    <edge id="80_78" from="80" to="78" priority="-1">
        <lane id="80_78_0" index="0" speed="20.12" length="796.71" shape="129.28,4224.02 111.31,5020.53" />
        <lane id="80_78_1" index="1" speed="20.12" length="796.71" shape="126.08,4223.95 108.11,5020.46" />
        <lane id="80_78_2" index="2" speed="20.12" length="796.71" shape="122.88,4223.88 104.91,5020.38" />
    </edge>
    <edge id="80_81" from="80" to="81" priority="-1">
        <lane id="80_81_0" index="0" speed="20.12" length="73.12" shape="134.94,4215.23 208.05,4214.67" />
    </edge>