<?xml version="1.0" encoding="UTF-8"?>

<configuration>
    <input>
        <net-file value="utdf_to_sumo.net.xml"/>
        <route-files value="utdf_to_sumo.rou.xml"/>
    </input>
    <time>
        <begin value="0"/>
        <end value="3600"/>
        <step-length value="0.1"/>
    </time>
</configuration>
