<?xml version="1.0" encoding="UTF-8"?>

<!-- generated on 2026-05-31 23:43:33 by Eclipse SUMO netconvert Version 1.21.0
<netconvertConfiguration xmlns:xsi="http://www.w3.org/2001/XMLSchema-instance" xsi:noNamespaceSchemaLocation="http://sumo.dlr.de/xsd/netconvertConfiguration.xsd">

    <input>
        <sumo-net-file value="c:/Users/xyluo25/anaconda3_workspace/001_GitHub/utdf2gmns/datasets/data_bullhead_seg4/utdf_to_sumo/utdf_to_sumo.net.xml"/>
    </input>

    <output>
        <output-file value="c:\Users\xyluo25\anaconda3_workspace\001_GitHub\utdf2gmns\datasets\data_bullhead_seg4\utdf_to_sumo\utdf_to_sumo.net.xml.rebuilt.tmp.xml"/>
    </output>

    <processing>
        <geometry.min-radius.fix.railways value="false"/>
        <geometry.max-grade.fix value="false"/>
        <offset.disable-normalization value="true"/>
        <lefthand value="0"/>
    </processing>

    <junctions>
        <no-turnarounds value="true"/>
        <junctions.corner-detail value="5"/>
        <junctions.limit-turn-speed value="5.50"/>
        <rectangular-lane-cut value="0"/>
    </junctions>

    <pedestrian>
        <walkingareas value="0"/>
    </pedestrian>

    <report>
        <no-warnings value="true"/>
    </report>

</netconvertConfiguration>
-->

<net version="1.20" junctionCornerDetail="5" limitTurnSpeed="5.50" xmlns:xsi="http://www.w3.org/2001/XMLSchema-instance" xsi:noNamespaceSchemaLocation="http://sumo.dlr.de/xsd/net_file.xsd">

    <location netOffset="-719065.61,-3871928.75" convBoundary="0.00,0.00,322.93,6670.67" origBoundary="-114.599131,34.966191,-114.596855,35.026324" projParameter="+proj=utm +zone=11 +ellps=WGS84 +datum=WGS84 +units=m +no_defs"/>

    <edge id=":39_0" function="internal">
        <lane id=":39_0_0" index="0" speed="4.02" length="12.21" shape="80.05,6645.47 76.01,6645.78 73.05,6646.77 71.18,6648.46 70.40,6650.85"/>
    </edge>
    <edge id=":39_1" function="internal">
        <lane id=":39_1_0" index="0" speed="26.82" length="27.71" shape="80.05,6645.47 72.25,6644.90 64.44,6643.72 57.58,6642.55 52.58,6642.00"/>
    </edge>
    <edge id=":39_2" function="internal">
        <lane id=":39_2_0" index="0" speed="6.71" length="24.66" shape="80.09,6642.27 72.03,6641.45 66.31,6639.15 62.93,6635.39 61.89,6630.15"/>
    </edge>
    <edge id=":39_3" function="internal">
        <lane id=":39_3_0" index="0" speed="4.02" length="11.51" shape="74.69,6630.44 74.96,6634.20 75.95,6636.89 77.67,6638.51 80.12,6639.07"/>
    </edge>
    <edge id=":39_4" function="internal">
        <lane id=":39_4_0" index="0" speed="26.82" length="20.84" shape="74.69,6630.44 74.04,6636.63 72.78,6640.82 71.40,6644.92 70.40,6650.85"/>
        <lane id=":39_4_1" index="1" speed="26.82" length="20.84" shape="71.49,6630.37 70.84,6636.48 69.58,6640.61 68.21,6644.67 67.22,6650.58"/>
    </edge>
    <edge id=":39_6" function="internal">
        <lane id=":39_6_0" index="0" speed="6.71" length="22.17" shape="68.29,6630.30 67.21,6635.48 64.23,6639.15 59.35,6641.33 52.58,6642.00"/>
    </edge>
    <edge id=":39_7" function="internal">
        <lane id=":39_7_0" index="0" speed="4.02" length="9.31" shape="52.65,6635.60 55.24,6635.28 57.12,6634.25 58.27,6632.52 58.70,6630.08"/>
    </edge>
    <edge id=":39_8" function="internal">
        <lane id=":39_8_0" index="0" speed="26.82" length="27.71" shape="52.65,6635.60 60.45,6636.18 68.26,6637.36 75.12,6638.53 80.12,6639.07"/>
    </edge>
    <edge id=":39_9" function="internal">
        <lane id=":39_9_0" index="0" speed="6.71" length="21.62" shape="52.61,6638.80 59.37,6639.59 64.06,6641.82 66.67,6645.48 67.22,6650.58"/>
    </edge>
    <edge id=":39_10" function="internal">
        <lane id=":39_10_0" index="0" speed="4.02" length="10.68" shape="57.65,6649.77 57.58,6646.39 56.71,6643.97 55.04,6642.51 52.58,6642.00"/>
    </edge>
    <edge id=":39_11" function="internal">
        <lane id=":39_11_0" index="0" speed="26.82" length="19.82" shape="57.65,6649.77 58.70,6630.08"/>
        <lane id=":39_11_1" index="1" speed="26.82" length="19.82" shape="60.84,6650.04 61.89,6630.15"/>
    </edge>
    <edge id=":39_13" function="internal">
        <lane id=":39_13_0" index="0" speed="6.71" length="21.92" shape="64.03,6650.31 65.39,6645.34 68.53,6641.81 73.44,6639.72 80.12,6639.07"/>
    </edge>
    <edge id=":75_0" function="internal">
        <lane id=":75_0_0" index="0" speed="4.02" length="9.06" shape="100.66,5735.83 98.19,5736.13 96.40,5737.15 95.31,5738.88 94.90,5741.32"/>
    </edge>
    <edge id=":75_1" function="internal">
        <lane id=":75_1_0" index="0" speed="26.82" length="27.44" shape="100.66,5735.83 92.90,5735.18 85.20,5733.91 78.44,5732.66 73.50,5732.04"/>
    </edge>
    <edge id=":75_2" function="internal">
        <lane id=":75_2_0" index="0" speed="6.71" length="24.74" shape="100.72,5732.63 92.68,5731.73 86.98,5729.36 83.61,5725.53 82.58,5720.25"/>
    </edge>
    <edge id=":75_3" function="internal">
        <lane id=":75_3_0" index="0" speed="4.02" length="11.71" shape="95.37,5720.54 95.64,5724.39 96.63,5727.16 98.34,5728.84 100.78,5729.43"/>
    </edge>
    <edge id=":75_4" function="internal">
        <lane id=":75_4_0" index="0" speed="26.82" length="20.78" shape="95.37,5720.54 94.90,5741.32"/>
        <lane id=":75_4_1" index="1" speed="26.82" length="20.78" shape="92.18,5720.47 91.70,5741.24"/>
    </edge>
    <edge id=":75_6" function="internal">
        <lane id=":75_6_0" index="0" speed="6.71" length="22.00" shape="88.98,5720.40 87.91,5725.63 84.97,5729.31 80.17,5731.45 73.50,5732.04"/>
    </edge>
    <edge id=":75_7" function="internal">
        <lane id=":75_7_0" index="0" speed="4.02" length="9.03" shape="73.65,5725.65 76.11,5725.35 77.88,5724.35 78.97,5722.62 79.38,5720.18"/>
    </edge>
    <edge id=":75_8" function="internal">
        <lane id=":75_8_0" index="0" speed="26.82" length="27.41" shape="73.65,5725.65 81.40,5726.32 89.09,5727.59 95.84,5728.83 100.78,5729.43"/>
    </edge>
    <edge id=":75_9" function="internal">
        <lane id=":75_9_0" index="0" speed="6.71" length="24.71" shape="73.57,5728.84 81.61,5729.78 87.31,5732.16 90.67,5735.98 91.70,5741.24"/>
    </edge>
    <edge id=":75_10" function="internal">
        <lane id=":75_10_0" index="0" speed="4.02" length="11.72" shape="78.91,5740.95 78.64,5737.11 77.65,5734.34 75.94,5732.65 73.50,5732.04"/>
    </edge>
    <edge id=":75_11" function="internal">
        <lane id=":75_11_0" index="0" speed="26.82" length="20.78" shape="78.91,5740.95 79.38,5720.18"/>
        <lane id=":75_11_1" index="1" speed="26.82" length="20.78" shape="82.11,5741.03 82.58,5720.25"/>
    </edge>
    <edge id=":75_13" function="internal">
        <lane id=":75_13_0" index="0" speed="6.71" length="21.99" shape="85.30,5741.10 86.37,5735.88 89.31,5732.20 94.11,5730.05 100.78,5729.43"/>
    </edge>
    <edge id=":78_0" function="internal">
        <lane id=":78_0_0" index="0" speed="4.02" length="9.11" shape="116.73,5032.61 114.23,5032.93 112.43,5033.96 111.32,5035.69 110.91,5038.13"/>
    </edge>
    <edge id=":78_1" function="internal">
        <lane id=":78_1_0" index="0" speed="6.71" length="24.85" shape="116.73,5032.61 108.66,5031.76 102.93,5029.41 99.55,5025.57 98.52,5020.24"/>
        <lane id=":78_1_1" index="1" speed="6.71" length="25.50" shape="116.76,5029.41 107.31,5028.74 100.58,5026.97 96.58,5024.12 95.32,5020.17"/>
    </edge>
    <edge id=":78_3" function="internal">
        <lane id=":78_3_0" index="0" speed="4.02" length="9.03" shape="111.31,5020.53 111.61,5022.99 112.62,5024.76 114.35,5025.83 116.80,5026.21"/>
    </edge>
    <edge id=":78_4" function="internal">
        <lane id=":78_4_0" index="0" speed="26.82" length="17.85" shape="111.31,5020.53 110.91,5038.13"/>
        <lane id=":78_4_1" index="1" speed="26.82" length="17.85" shape="108.11,5020.46 108.49,5025.73 109.51,5029.29 110.53,5032.85 110.91,5038.13"/>
        <lane id=":78_4_2" index="2" speed="26.82" length="17.85" shape="104.91,5020.39 105.30,5025.66 106.32,5029.22 107.33,5032.78 107.71,5038.05"/>
    </edge>
    <edge id=":78_7" function="internal">
        <lane id=":78_7_0" index="0" speed="26.82" length="17.60" shape="94.92,5037.76 95.32,5020.17"/>
        <lane id=":78_7_1" index="1" speed="26.82" length="17.60" shape="98.12,5037.83 98.52,5020.24"/>
    </edge>
    <edge id=":78_9" function="internal">
        <lane id=":78_9_0" index="0" speed="6.71" length="21.98" shape="101.32,5037.91 102.39,5032.72 105.32,5029.05 110.13,5026.88 116.80,5026.21"/>
    </edge>
    <edge id=":80_0" function="internal">
        <lane id=":80_0_0" index="0" speed="4.02" length="9.03" shape="134.96,4218.43 132.52,4218.79 130.76,4219.85 129.68,4221.59 129.28,4224.02"/>
    </edge>
    <edge id=":80_1" function="internal">
        <lane id=":80_1_0" index="0" speed="6.71" length="22.51" shape="134.96,4218.43 126.94,4217.92 121.24,4216.24 117.87,4213.41 116.82,4209.41"/>
    </edge>
    <edge id=":80_2" function="internal">
        <lane id=":80_2_0" index="0" speed="4.02" length="11.54" shape="126.42,4209.64 126.90,4212.11 128.48,4213.86 131.16,4214.90 134.94,4215.23"/>
    </edge>
    <edge id=":80_3" function="internal">
        <lane id=":80_3_0" index="0" speed="26.82" length="14.78" shape="126.42,4209.64 126.81,4213.95 127.85,4216.83 128.88,4219.71 129.28,4224.02"/>
        <lane id=":80_3_1" index="1" speed="26.82" length="14.78" shape="123.22,4209.57 123.61,4213.87 124.65,4216.76 125.68,4219.64 126.08,4223.95"/>
    </edge>
    <edge id=":80_5" function="internal">
        <lane id=":80_5_0" index="0" speed="26.82" length="14.33" shape="113.29,4223.66 113.62,4209.34"/>
        <lane id=":80_5_1" index="1" speed="26.82" length="14.33" shape="116.49,4223.73 116.82,4209.41"/>
    </edge>
    <edge id=":80_7" function="internal">
        <lane id=":80_7_0" index="0" speed="6.71" length="6.47" shape="119.68,4223.80 120.71,4220.09 122.63,4218.32"/>
    </edge>
    <edge id=":80_8" function="internal">
        <lane id=":80_8_0" index="0" speed="6.71" length="12.95" shape="122.63,4218.32 123.59,4217.43 128.33,4215.81 134.94,4215.23"/>
    </edge>
    <edge id=":82_0" function="internal">
        <lane id=":82_0_0" index="0" speed="4.02" length="9.03" shape="151.31,3408.12 148.85,3408.40 147.08,3409.41 145.98,3411.13 145.57,3413.57"/>
    </edge>
    <edge id=":82_1" function="internal">
        <lane id=":82_1_0" index="0" speed="6.71" length="19.62" shape="151.31,3408.12 144.68,3407.39 139.96,3405.63 137.18,3402.81 136.31,3398.96"/>
    </edge>
    <edge id=":82_2" function="internal">
        <lane id=":82_2_0" index="0" speed="4.02" length="9.05" shape="145.91,3399.18 146.21,3401.63 147.22,3403.41 148.95,3404.50 151.40,3404.92"/>
    </edge>
    <edge id=":82_3" function="internal">
        <lane id=":82_3_0" index="0" speed="26.82" length="14.40" shape="145.91,3399.18 145.57,3413.57"/>
        <lane id=":82_3_1" index="1" speed="26.82" length="14.40" shape="142.71,3399.10 142.38,3413.49"/>
    </edge>
    <edge id=":82_5" function="internal">
        <lane id=":82_5_0" index="0" speed="26.82" length="14.84" shape="132.78,3413.26 132.38,3408.93 131.35,3406.04 130.32,3403.14 129.91,3398.82"/>
        <lane id=":82_5_1" index="1" speed="26.82" length="14.84" shape="135.98,3413.34 135.58,3409.01 134.55,3406.11 133.52,3403.22 133.11,3398.89"/>
    </edge>
    <edge id=":82_7" function="internal">
        <lane id=":82_7_0" index="0" speed="6.71" length="16.87" shape="139.18,3413.42 140.02,3409.58 142.34,3406.88 146.13,3405.33 151.40,3404.92"/>
    </edge>
    <edge id=":84_0" function="internal">
        <lane id=":84_0_0" index="0" speed="4.02" length="14.44" shape="193.88,1797.37 188.68,1797.58 184.95,1798.53 182.69,1800.22 181.89,1802.65"/>
    </edge>
    <edge id=":84_1" function="internal">
        <lane id=":84_1_0" index="0" speed="26.82" length="33.47" shape="193.88,1797.37 160.43,1796.51"/>
        <lane id=":84_1_1" index="1" speed="26.82" length="33.47" shape="193.97,1794.17 160.51,1793.32"/>
    </edge>
    <edge id=":84_3" function="internal">
        <lane id=":84_3_0" index="0" speed="6.71" length="5.90" shape="193.97,1794.17 188.13,1793.31"/>
    </edge>
    <edge id=":84_19" function="internal">
        <lane id=":84_19_0" index="0" speed="6.71" length="21.28" shape="188.13,1793.31 185.99,1793.00 180.33,1789.98 176.98,1785.12 175.93,1778.41"/>
    </edge>
    <edge id=":84_4" function="internal">
        <lane id=":84_4_0" index="0" speed="4.02" length="9.23" shape="188.73,1778.60 189.04,1781.16 190.06,1783.00 191.79,1784.14 194.22,1784.57"/>
    </edge>
    <edge id=":84_5" function="internal">
        <lane id=":84_5_0" index="0" speed="26.82" length="24.69" shape="188.73,1778.60 187.62,1786.23 185.33,1791.57 183.03,1796.44 181.89,1802.65"/>
        <lane id=":84_5_1" index="1" speed="26.82" length="24.69" shape="185.53,1778.55 184.92,1786.05 183.73,1791.42 182.53,1796.38 181.89,1802.65"/>
        <lane id=":84_5_2" index="2" speed="26.82" length="24.69" shape="182.33,1778.50 181.72,1786.00 180.53,1791.36 179.33,1796.31 178.69,1802.58"/>
    </edge>
    <edge id=":84_8" function="internal">
        <lane id=":84_8_0" index="0" speed="6.71" length="27.16" shape="179.13,1778.46 177.88,1785.12 174.36,1789.82 168.57,1792.55 160.51,1793.32"/>
    </edge>
    <edge id=":84_9" function="internal">
        <lane id=":84_9_0" index="0" speed="4.02" length="11.64" shape="160.74,1783.72 164.55,1783.46 167.29,1782.47 168.95,1780.76 169.53,1778.31"/>
    </edge>
    <edge id=":84_10" function="internal">
        <lane id=":84_10_0" index="0" speed="26.82" length="33.49" shape="160.74,1783.72 194.22,1784.57"/>
        <lane id=":84_10_1" index="1" speed="26.82" length="33.49" shape="160.66,1786.92 194.14,1787.77"/>
        <lane id=":84_10_2" index="2" speed="26.82" length="33.49" shape="160.58,1790.12 194.05,1790.97"/>
    </edge>
    <edge id=":84_13" function="internal">
        <lane id=":84_13_0" index="0" speed="6.71" length="7.68" shape="160.58,1790.12 168.21,1791.01"/>
    </edge>
    <edge id=":84_20" function="internal">
        <lane id=":84_20_0" index="0" speed="6.71" length="17.06" shape="168.21,1791.01 168.61,1791.06 174.30,1793.45 177.66,1797.29 178.69,1802.58"/>
    </edge>
    <edge id=":84_14" function="internal">
        <lane id=":84_14_0" index="0" speed="4.02" length="9.07" shape="165.90,1802.29 165.60,1799.82 164.59,1798.03 162.87,1796.93 160.43,1796.51"/>
    </edge>
    <edge id=":84_15" function="internal">
        <lane id=":84_15_0" index="0" speed="26.82" length="24.35" shape="165.90,1802.29 166.56,1795.14 167.75,1790.30 168.93,1785.47 169.53,1778.31"/>
        <lane id=":84_15_1" index="1" speed="26.82" length="24.35" shape="169.10,1802.37 169.76,1795.20 170.95,1790.36 172.13,1785.53 172.73,1778.36"/>
        <lane id=":84_15_2" index="2" speed="26.82" length="24.35" shape="172.30,1802.44 172.95,1795.27 174.15,1790.42 175.33,1785.58 175.93,1778.41"/>
    </edge>
    <edge id=":84_18" function="internal">
        <lane id=":84_18_0" index="0" speed="6.71" length="24.63" shape="175.50,1802.51 176.76,1797.28 180.27,1793.61 186.04,1791.51 194.05,1790.97"/>
    </edge>
    <edge id=":87_0" function="internal">
        <lane id=":87_0_0" index="0" speed="4.02" length="9.14" shape="227.32,181.94 224.81,182.25 222.99,183.27 221.88,185.00 221.46,187.44"/>
    </edge>
    <edge id=":87_1" function="internal">
        <lane id=":87_1_0" index="0" speed="26.82" length="27.53" shape="227.32,181.94 218.67,181.30 212.29,180.10 206.61,178.89 200.07,178.27"/>
        <lane id=":87_1_1" index="1" speed="26.82" length="27.53" shape="227.37,178.74 218.72,178.11 212.35,176.90 206.67,175.69 200.13,175.07"/>
    </edge>
    <edge id=":87_3" function="internal">
        <lane id=":87_3_0" index="0" speed="6.71" length="24.50" shape="227.42,175.54 220.76,174.49 216.06,171.57 213.31,166.78 212.50,160.12"/>
    </edge>
    <edge id=":87_4" function="internal">
        <lane id=":87_4_0" index="0" speed="4.02" length="11.65" shape="222.10,160.33 222.37,164.16 223.36,166.90 225.07,168.56 227.52,169.14"/>
    </edge>
    <edge id=":87_5" function="internal">
        <lane id=":87_5_0" index="0" speed="26.82" length="27.11" shape="222.10,160.33 221.46,187.44"/>
        <lane id=":87_5_1" index="1" speed="26.82" length="27.11" shape="218.90,160.26 218.26,187.36"/>
    </edge>
    <edge id=":87_7" function="internal">
        <lane id=":87_7_0" index="0" speed="6.71" length="24.54" shape="215.70,160.19 214.60,166.81 211.64,171.50 206.82,174.25 200.13,175.07"/>
    </edge>
    <edge id=":87_8" function="internal">
        <lane id=":87_8_0" index="0" speed="4.02" length="11.79" shape="200.32,165.47 204.20,165.20 206.99,164.20 208.70,162.48 209.30,160.05"/>
    </edge>
    <edge id=":87_9" function="internal">
        <lane id=":87_9_0" index="0" speed="26.82" length="27.50" shape="200.32,165.47 208.95,166.13 215.31,167.35 220.98,168.54 227.52,169.14"/>
        <lane id=":87_9_1" index="1" speed="26.82" length="27.50" shape="200.26,168.67 208.89,169.33 215.26,170.55 220.93,171.74 227.47,172.34"/>
    </edge>
    <edge id=":87_11" function="internal">
        <lane id=":87_11_0" index="0" speed="6.71" length="27.09" shape="200.19,171.87 208.24,172.97 213.93,175.92 217.27,180.71 218.26,187.36"/>
    </edge>
    <edge id=":87_12" function="internal">
        <lane id=":87_12_0" index="0" speed="4.02" length="11.59" shape="205.46,187.04 205.21,183.24 204.22,180.51 202.51,178.86 200.07,178.27"/>
    </edge>
    <edge id=":87_13" function="internal">
        <lane id=":87_13_0" index="0" speed="26.82" length="27.31" shape="205.46,187.04 206.18,178.48 207.43,172.18 208.66,166.57 209.30,160.05"/>
        <lane id=":87_13_1" index="1" speed="26.82" length="27.31" shape="208.66,187.12 209.38,178.55 210.63,172.26 211.86,166.64 212.50,160.12"/>
    </edge>
    <edge id=":87_15" function="internal">
        <lane id=":87_15_0" index="0" speed="6.71" length="24.52" shape="211.86,187.20 212.98,180.61 215.95,175.94 220.78,173.18 227.47,172.34"/>
    </edge>
    <edge id=":98_0" function="internal">
        <lane id=":98_0_0" index="0" speed="26.82" length="20.95" shape="191.65,1377.76 191.99,1383.92 192.98,1388.10 194.00,1392.27 194.40,1398.44"/>
        <lane id=":98_0_1" index="1" speed="26.82" length="20.95" shape="188.45,1377.68 188.79,1383.85 189.78,1388.03 190.80,1392.22 191.20,1398.39"/>
    </edge>
    <edge id=":98_2" function="internal">
        <lane id=":98_2_0" index="0" speed="6.71" length="24.98" shape="185.25,1377.60 184.10,1384.39 181.05,1389.09 176.09,1391.70 169.22,1392.23"/>
    </edge>
    <edge id=":98_3" function="internal">
        <lane id=":98_3_0" index="0" speed="4.02" length="9.04" shape="169.86,1382.65 172.34,1382.46 174.13,1381.52 175.24,1379.82 175.65,1377.36"/>
    </edge>
    <edge id=":98_4" function="internal">
        <lane id=":98_4_0" index="0" speed="6.71" length="26.95" shape="169.86,1382.65 177.87,1384.09 183.57,1387.18 186.95,1391.93 188.00,1398.34"/>
        <lane id=":98_4_1" index="1" speed="6.71" length="27.40" shape="169.64,1385.84 179.14,1387.17 185.89,1389.70 189.91,1393.44 191.20,1398.39"/>
        <lane id=":98_4_2" index="2" speed="6.71" length="28.30" shape="169.43,1389.04 180.40,1390.25 188.22,1392.22 192.88,1394.95 194.40,1398.44"/>
    </edge>
    <edge id=":98_7" function="internal">
        <lane id=":98_7_0" index="0" speed="4.02" length="9.48" shape="175.20,1398.15 174.86,1395.71 173.75,1393.91 171.87,1392.75 169.22,1392.23"/>
    </edge>
    <edge id=":98_8" function="internal">
        <lane id=":98_8_0" index="0" speed="26.82" length="20.99" shape="175.20,1398.15 175.65,1377.36"/>
        <lane id=":98_8_1" index="1" speed="26.82" length="20.99" shape="178.40,1398.20 178.00,1391.99 176.99,1387.78 175.99,1383.57 175.65,1377.36"/>
        <lane id=":98_8_2" index="2" speed="26.82" length="20.99" shape="181.60,1398.25 181.20,1392.04 180.19,1387.84 179.19,1383.64 178.85,1377.44"/>
    </edge>

    <edge id="106_39" from="106" to="39" priority="-1">
        <lane id="106_39_0" index="0" speed="20.12" length="20.30" shape="55.94,6670.00 57.65,6649.77"/>
        <lane id="106_39_1" index="1" speed="20.12" length="20.30" shape="59.13,6670.27 60.84,6650.04"/>
        <lane id="106_39_2" index="2" speed="20.12" length="20.30" shape="62.32,6670.54 64.03,6650.31"/>
    </edge>
    <edge id="31_87" from="31" to="87" priority="-1">
        <lane id="31_87_0" index="0" speed="20.12" length="160.19" shape="225.68,0.18 222.10,160.33"/>
        <lane id="31_87_1" index="1" speed="20.12" length="160.19" shape="222.48,0.11 218.90,160.26"/>
        <lane id="31_87_2" index="2" speed="20.12" length="160.19" shape="219.28,0.04 215.70,160.19"/>
    </edge>
    <edge id="39_106" from="39" to="106" priority="-1">
        <lane id="39_106_0" index="0" speed="20.12" length="20.30" shape="70.40,6650.85 68.69,6671.07"/>
        <lane id="39_106_1" index="1" speed="20.12" length="20.30" shape="67.22,6650.58 65.50,6670.80"/>
    </edge>
    <edge id="39_73" from="39" to="73" priority="-1">
        <lane id="39_73_0" index="0" speed="20.12" length="52.60" shape="52.58,6642.00 -0.02,6641.46"/>
    </edge>
    <edge id="39_74" from="39" to="74" priority="-1">
        <lane id="39_74_0" index="0" speed="20.12" length="72.34" shape="80.12,6639.07 152.46,6639.79"/>
    </edge>
    <edge id="39_75" from="39" to="75" priority="-1">
        <lane id="39_75_0" index="0" speed="20.12" length="889.36" shape="58.70,6630.08 78.91,5740.95"/>
        <lane id="39_75_1" index="1" speed="20.12" length="889.36" shape="61.89,6630.15 82.11,5741.03"/>
        <lane id="39_75_2" index="2" speed="20.12" length="889.36" shape="65.09,6630.23 85.30,5741.10"/>
    </edge>
    <edge id="73_39" from="73" to="39" priority="-1">
        <lane id="73_39_0" index="0" speed="20.12" length="52.60" shape="0.05,6635.06 52.65,6635.60"/>
        <lane id="73_39_1" index="1" speed="20.12" length="52.60" shape="0.02,6638.26 52.61,6638.80"/>
    </edge>
    <edge id="74_39" from="74" to="39" priority="-1">
        <lane id="74_39_0" index="0" speed="20.12" length="72.34" shape="152.39,6646.19 80.05,6645.47"/>
        <lane id="74_39_1" index="1" speed="20.12" length="72.34" shape="152.42,6642.99 80.09,6642.27"/>
    </edge>
    <edge id="75_39" from="75" to="39" priority="-1">
        <lane id="75_39_0" index="0" speed="20.12" length="889.36" shape="94.90,5741.32 74.69,6630.44"/>
        <lane id="75_39_1" index="1" speed="20.12" length="889.36" shape="91.70,5741.24 71.49,6630.37"/>
        <lane id="75_39_2" index="2" speed="20.12" length="889.36" shape="88.50,5741.17 68.29,6630.30"/>
    </edge>
    <edge id="75_76" from="75" to="76" priority="-1">
        <lane id="75_76_0" index="0" speed="20.12" length="41.88" shape="73.50,5732.04 31.63,5731.04"/>
    </edge>
    <edge id="75_77" from="75" to="77" priority="-1">
        <lane id="75_77_0" index="0" speed="20.12" length="50.41" shape="100.78,5729.43 151.18,5730.41"/>
    </edge>
    <edge id="75_78" from="75" to="78" priority="-1">
        <lane id="75_78_0" index="0" speed="20.12" length="682.59" shape="79.38,5720.18 94.92,5037.76"/>
        <lane id="75_78_1" index="1" speed="20.12" length="682.59" shape="82.58,5720.25 98.12,5037.83"/>
        <lane id="75_78_2" index="2" speed="20.12" length="682.59" shape="85.78,5720.32 101.32,5037.91"/>
    </edge>
    <edge id="76_75" from="76" to="75" priority="-1">
        <lane id="76_75_0" index="0" speed="20.12" length="41.88" shape="31.79,5724.64 73.65,5725.65"/>
        <lane id="76_75_1" index="1" speed="20.12" length="41.88" shape="31.71,5727.84 73.57,5728.84"/>
    </edge>
    <edge id="77_75" from="77" to="75" priority="-1">
        <lane id="77_75_0" index="0" speed="20.12" length="50.41" shape="151.06,5736.81 100.66,5735.83"/>
        <lane id="77_75_1" index="1" speed="20.12" length="50.41" shape="151.12,5733.61 100.72,5732.63"/>
    </edge>
    <edge id="78_75" from="78" to="75" priority="-1">
        <lane id="78_75_0" index="0" speed="20.12" length="682.59" shape="110.91,5038.13 95.37,5720.54"/>
        <lane id="78_75_1" index="1" speed="20.12" length="682.59" shape="107.71,5038.05 92.18,5720.47"/>
        <lane id="78_75_2" index="2" speed="20.12" length="682.59" shape="104.52,5037.98 88.98,5720.40"/>
    </edge>
    <edge id="78_79" from="78" to="79" priority="-1">
        <lane id="78_79_0" index="0" speed="20.12" length="61.98" shape="116.80,5026.21 178.78,5026.95"/>
    </edge>
    <edge id="78_80" from="78" to="80" priority="-1">
        <lane id="78_80_0" index="0" speed="20.12" length="796.71" shape="95.32,5020.17 113.29,4223.66"/>
        <lane id="78_80_1" index="1" speed="20.12" length="796.71" shape="98.52,5020.24 116.49,4223.73"/>
        <lane id="78_80_2" index="2" speed="20.12" length="796.71" shape="101.72,5020.31 119.68,4223.80"/>
    </edge>
    <edge id="79_78" from="79" to="78" priority="-1">
        <lane id="79_78_0" index="0" speed="20.12" length="61.98" shape="178.70,5033.35 116.73,5032.61"/>
        <lane id="79_78_1" index="1" speed="20.12" length="61.98" shape="178.74,5030.15 116.76,5029.41"/>
    </edge>
    <edge id="80_78" from="80" to="78" priority="-1">
        <lane id="80_78_0" index="0" speed="20.12" length="796.71" shape="129.28,4224.02 111.31,5020.53"/>
        <lane id="80_78_1" index="1" speed="20.12" length="796.71" shape="126.08,4223.95 108.11,5020.46"/>
        <lane id="80_78_2" index="2" speed="20.12" length="796.71" shape="122.88,4223.88 104.91,5020.39"/>
    </edge>
    <edge id="80_81" from="80" to="81" priority="-1">
        <lane id="80_81_0" index="0" speed="20.12" length="73.11" shape="134.94,4215.23 208.05,4214.67"/>
    </edge>
    <edge id="80_82" from="80" to="82" priority="-1">
        <lane id="80_82_0" index="0" speed="20.12" length="796.30" shape="113.62,4209.34 132.78,3413.26"/>
        <lane id="80_82_1" index="1" speed="20.12" length="796.30" shape="116.82,4209.41 135.98,3413.34"/>
        <lane id="80_82_2" index="2" speed="20.12" length="796.30" shape="120.02,4209.49 139.18,3413.42"/>
    </edge>
    <edge id="81_80" from="81" to="80" priority="-1">
        <lane id="81_80_0" index="0" speed="20.12" length="73.11" shape="208.07,4217.87 134.96,4218.43"/>
    </edge>
    <edge id="82_80" from="82" to="80" priority="-1">
        <lane id="82_80_0" index="0" speed="20.12" length="796.30" shape="145.57,3413.57 126.42,4209.64"/>
        <lane id="82_80_1" index="1" speed="20.12" length="796.30" shape="142.38,3413.49 123.22,4209.57"/>
    </edge>
    <edge id="82_83" from="82" to="83" priority="-1">
        <lane id="82_83_0" index="0" speed="20.12" length="104.52" shape="151.40,3404.92 255.88,3407.71"/>
    </edge>
    <edge id="82_84" from="82" to="84" priority="-1">
        <lane id="82_84_0" index="0" speed="20.12" length="1596.93" shape="129.91,3398.82 165.90,1802.29"/>
        <lane id="82_84_1" index="1" speed="20.12" length="1596.93" shape="133.11,3398.89 169.10,1802.37"/>
        <lane id="82_84_2" index="2" speed="20.12" length="1596.93" shape="136.31,3398.96 172.30,1802.44"/>
        <lane id="82_84_3" index="3" speed="20.12" length="1596.93" shape="139.51,3399.03 175.50,1802.51"/>
    </edge>
    <edge id="83_82" from="83" to="82" priority="-1">
        <lane id="83_82_0" index="0" speed="20.12" length="104.52" shape="255.80,3410.91 151.31,3408.12"/>
    </edge>
    <edge id="84_82" from="84" to="82" priority="-1">
        <lane id="84_82_0" index="0" speed="20.12" length="1596.93" shape="181.89,1802.65 145.91,3399.18"/>
        <lane id="84_82_1" index="1" speed="20.12" length="1596.93" shape="178.69,1802.58 142.71,3399.10"/>
    </edge>
    <edge id="84_85" from="84" to="85" priority="-1">
        <lane id="84_85_0" index="0" speed="20.12" length="61.25" shape="160.43,1796.51 99.19,1795.04"/>
        <lane id="84_85_1" index="1" speed="20.12" length="61.25" shape="160.51,1793.32 99.27,1791.84"/>
    </edge>
    <edge id="84_86" from="84" to="86" priority="-1">
        <lane id="84_86_0" index="0" speed="20.12" length="89.10" shape="194.22,1784.57 283.30,1786.97"/>
        <lane id="84_86_1" index="1" speed="20.12" length="89.10" shape="194.14,1787.77 283.21,1790.17"/>
        <lane id="84_86_2" index="2" speed="20.12" length="89.10" shape="194.05,1790.97 283.12,1793.37"/>
    </edge>
    <edge id="84_98" from="84" to="98" priority="-1">
        <lane id="84_98_0" index="0" speed="20.12" length="380.20" shape="169.53,1778.31 175.20,1398.15"/>
        <lane id="84_98_1" index="1" speed="20.12" length="380.20" shape="172.73,1778.36 178.40,1398.20"/>
        <lane id="84_98_2" index="2" speed="20.12" length="380.20" shape="175.93,1778.41 181.60,1398.25"/>
    </edge>
    <edge id="85_84" from="85" to="84" priority="-1">
        <lane id="85_84_0" index="0" speed="20.12" length="61.25" shape="99.50,1782.24 160.74,1783.72"/>
        <lane id="85_84_1" index="1" speed="20.12" length="61.25" shape="99.43,1785.44 160.66,1786.92"/>
        <lane id="85_84_2" index="2" speed="20.12" length="61.25" shape="99.35,1788.64 160.58,1790.12"/>
    </edge>
    <edge id="86_84" from="86" to="84" priority="-1">
        <lane id="86_84_0" index="0" speed="20.12" length="89.10" shape="282.95,1799.77 193.88,1797.37"/>
        <lane id="86_84_1" index="1" speed="20.12" length="89.10" shape="283.04,1796.57 193.97,1794.17"/>
    </edge>
    <edge id="87_31" from="87" to="31" priority="-1">
        <lane id="87_31_0" index="0" speed="20.12" length="160.19" shape="209.30,160.05 212.88,-0.11"/>
        <lane id="87_31_1" index="1" speed="20.12" length="160.19" shape="212.50,160.12 216.08,-0.04"/>
    </edge>
    <edge id="87_88" from="87" to="88" priority="-1">
        <lane id="87_88_0" index="0" speed="20.12" length="47.33" shape="200.07,178.27 152.75,177.37"/>
        <lane id="87_88_1" index="1" speed="20.12" length="47.33" shape="200.13,175.07 152.81,174.17"/>
    </edge>
    <edge id="87_89" from="87" to="89" priority="-1">