<?xml version="1.0" ?>
<connections>
    <connection from="75_39" to="39_74" fromLane="0" toLane="0" dir="r"/>
    <connection from="75_39" to="39_106" fromLane="0" toLane="0" dir="s"/>
    <connection from="75_39" to="39_106" fromLane="1" toLane="1" dir="s"/>
    <connection from="75_39" to="39_73" fromLane="2" toLane="0" dir="l"/>
    <connection from="106_39" to="39_73" fromLane="0" toLane="0" dir="r"/>
    <connection from="106_39" to="39_75" fromLane="0" toLane="0" dir="s"/>
    <connection from="106_39" to="39_75" fromLane="1" toLane="1" dir="s"/>
    <connection from="106_39" to="39_74" fromLane="2" toLane="0" dir="l"/>
    <connection from="73_39" to="39_75" fromLane="0" toLane="0" dir="r"/>
    <connection from="73_39" to="39_74" fromLane="0" toLane="0" dir="s"/>
    <connection from="73_39" to="39_106" fromLane="1" toLane="1" dir="l"/>
    <connection from="74_39" to="39_106" fromLane="0" toLane="0" dir="r"/>
    <connection from="74_39" to="39_73" fromLane="0" toLane="0" dir="s"/>
    <connection from="74_39" to="39_75" fromLane="1" toLane="2" dir="l"/>
    <connection from="78_75" to="75_77" fromLane="0" toLane="0" dir="r"/>
    <connection from="78_75" to="75_39" fromLane="0" toLane="0" dir="s"/>
    <connection from="78_75" to="75_39" fromLane="1" toLane="1" dir="s"/>
    <connection from="78_75" to="75_76" fromLane="2" toLane="0" dir="l"/>
    <connection from="39_75" to="75_76" fromLane="0" toLane="0" dir="r"/>
    <connection from="39_75" to="75_78" fromLane="0" toLane="0" dir="s"/>
    <connection from="39_75" to="75_78" fromLane="1" toLane="1" dir="s"/>
    <connection from="39_75" to="75_77" fromLane="2" toLane="0" dir="l"/>
    <connection from="76_75" to="75_78" fromLane="0" toLane="0" dir="r"/>
    <connection from="76_75" to="75_77" fromLane="0" toLane="0" dir="s"/>
    <connection from="76_75" to="75_39" fromLane="1" toLane="2" dir="l"/>
    <connection from="77_75" to="75_39" fromLane="0" toLane="0" dir="r"/>
    <connection from="77_75" to="75_76" fromLane="0" toLane="0" dir="s"/>
    <connection from="77_75" to="75_78" fromLane="1" toLane="2" dir="l"/>
    <connection from="80_78" to="78_79" fromLane="0" toLane="0" dir="r"/>
    <connection from="80_78" to="78_75" fromLane="0" toLane="0" dir="s"/>
    <connection from="80_78" to="78_75" fromLane="1" toLane="1" dir="s"/>
    <connection from="80_78" to="78_75" fromLane="2" toLane="2" dir="s"/>
    <connection from="75_78" to="78_80" fromLane="0" toLane="0" dir="s"/>
    <connection from="75_78" to="78_80" fromLane="1" toLane="1" dir="s"/>
    <connection from="75_78" to="78_79" fromLane="2" toLane="0" dir="l"/>
    <connection from="79_78" to="78_75" fromLane="0" toLane="0" dir="r"/>
    <connection from="79_78" to="78_80" fromLane="0" toLane="1" dir="l"/>
    <connection from="79_78" to="78_80" fromLane="1" toLane="2" dir="l"/>
    <connection from="82_80" to="80_81" fromLane="0" toLane="0" dir="r"/>
    <connection from="82_80" to="80_78" fromLane="0" toLane="0" dir="s"/>
    <connection from="82_80" to="80_78" fromLane="1" toLane="1" dir="s"/>
    <connection from="78_80" to="80_82" fromLane="0" toLane="0" dir="s"/>
    <connection from="78_80" to="80_82" fromLane="1" toLane="1" dir="s"/>
    <connection from="78_80" to="80_81" fromLane="2" toLane="0" dir="l"/>
    <connection from="81_80" to="80_78" fromLane="0" toLane="0" dir="r"/>
    <connection from="81_80" to="80_82" fromLane="0" toLane="2" dir="l"/>
    <connection from="84_82" to="82_83" fromLane="0" toLane="0" dir="r"/>
    <connection from="84_82" to="82_80" fromLane="0" toLane="0" dir="s"/>
    <connection from="84_82" to="82_80" fromLane="1" toLane="1" dir="s"/>
    <connection from="80_82" to="82_84" fromLane="0" toLane="0" dir="s"/>
    <connection from="80_82" to="82_84" fromLane="1" toLane="1" dir="s"/>
    <connection from="80_82" to="82_83" fromLane="2" toLane="0" dir="l"/>
    <connection from="83_82" to="82_80" fromLane="0" toLane="0" dir="r"/>
    <connection from="83_82" to="82_84" fromLane="0" toLane="3" dir="l"/>
    <connection from="98_84" to="84_86" fromLane="0" toLane="0" dir="r"/>
    <connection from="98_84" to="84_82" fromLane="0" toLane="0" dir="s"/>
    <connection from="98_84" to="84_82" fromLane="1" toLane="1" dir="s"/>
    <connection from="98_84" to="84_82" fromLane="2" toLane="1" dir="s"/>
    <connection from="98_84" to="84_85" fromLane="3" toLane="1" dir="l"/>
    <connection from="82_84" to="84_85" fromLane="0" toLane="0" dir="r"/>
    <connection from="82_84" to="84_98" fromLane="0" toLane="0" dir="s"/>
    <connection from="82_84" to="84_98" fromLane="1" toLane="1" dir="s"/>
    <connection from="82_84" to="84_98" fromLane="2" toLane="2" dir="s"/>
    <connection from="82_84" to="84_86" fromLane="3" toLane="2" dir="l"/>
    <connection from="85_84" to="84_98" fromLane="0" toLane="0" dir="r"/>
    <connection from="85_84" to="84_86" fromLane="0" toLane="0" dir="s"/>
    <connection from="85_84" to="84_86" fromLane="1" toLane="1" dir="s"/>
    <connection from="85_84" to="84_86" fromLane="2" toLane="2" dir="s"/>
    <connection from="85_84" to="84_82" fromLane="2" toLane="1" dir="l"/>
    <connection from="86_84" to="84_82" fromLane="0" toLane="0" dir="r"/>
    <connection from="86_84" to="84_85" fromLane="0" toLane="0" dir="s"/>
    <connection from="86_84" to="84_85" fromLane="1" toLane="1" dir="s"/>
    <connection from="86_84" to="84_98" fromLane="1" toLane="2" dir="l"/>
    <connection from="31_87" to="87_89" fromLane="0" toLane="0" dir="r"/>
    <connection from="31_87" to="87_98" fromLane="0" toLane="0" dir="s"/>
    <connection from="31_87" to="87_98" fromLane="1" toLane="1" dir="s"/>
    <connection from="31_87" to="87_88" fromLane="2" toLane="1" dir="l"/>
    <connection from="98_87" to="87_88" fromLane="0" toLane="0" dir="r"/>
    <connection from="98_87" to="87_31" fromLane="0" toLane="0" dir="s"/>
    <connection from="98_87" to="87_31" fromLane="1" toLane="1" dir="s"/>
    <connection from="98_87" to="87_89" fromLane="2" toLane="1" dir="l"/>
    <connection from="88_87" to="87_31" fromLane="0" toLane="0" dir="r"/>
    <connection from="88_87" to="87_89" fromLane="0" toLane="0" dir="s"/>
    <connection from="88_87" to="87_89" fromLane="1" toLane="1" dir="s"/>
    <connection from="88_87" to="87_98" fromLane="2" toLane="2" dir="l"/>
    <connection from="89_87" to="87_98" fromLane="0" toLane="0" dir="r"/>
    <connection from="89_87" to="87_88" fromLane="0" toLane="0" dir="s"/>
    <connection from="89_87" to="87_88" fromLane="1" toLane="1" dir="s"/>
    <connection from="89_87" to="87_31" fromLane="2" toLane="1" dir="l"/>
    <connection from="87_98" to="98_84" fromLane="0" toLane="0" dir="s"/>
    <connection from="87_98" to="98_84" fromLane="1" toLane="1" dir="s"/>
    <connection from="87_98" to="98_97" fromLane="2" toLane="0" dir="l"/>
    <connection from="84_98" to="98_97" fromLane="0" toLane="0" dir="r"/>
    <connection from="84_98" to="98_87" fromLane="0" toLane="0" dir="s"/>
    <connection from="84_98" to="98_87" fromLane="1" toLane="1" dir="s"/>
    <connection from="84_98" to="98_87" fromLane="2" toLane="2" dir="s"/>
    <connection from="97_98" to="98_87" fromLane="0" toLane="0" dir="r"/>
    <connection from="97_98" to="98_84" fromLane="0" toLane="1" dir="l"/>
    <connection from="97_98" to="98_84" fromLane="1" toLane="2" dir="l"/>
    <connection from="97_98" to="98_84" fromLane="2" toLane="3" dir="l"/>
</connections>
