<?xml version="1.0" ?>
<nodes>
    <node id="31" x="-114.59817011712792" y="34.9661912305817"/>
    <node id="39" x="-114.59807666698381" y="35.02605198650903" type="traffic_light"/>
    <node id="73" x="-114.59880477316032" y="35.026060226539805"/>
    <node id="74" x="-114.59713480508617" y="35.026040993234105"/>
    <node id="75" x="-114.59809002539487" y="35.017850977029575" type="traffic_light"/>
    <node id="76" x="-114.59869783309787" y="35.017850975440744"/>
    <node id="77" x="-114.5973887088375" y="35.0178482276718"/>
    <node id="78" x="-114.59810004239961" y="35.01151270179387" type="traffic_light"/>
    <node id="79" x="-114.59727188489231" y="35.01150445689333"/>
    <node id="80" x="-114.59811339651334" y="35.00420458253914" type="traffic_light"/>
    <node id="81" x="-114.5971651071163" y="35.00417985238786"/>
    <node id="82" x="-114.59811339324779" y="34.99689645447201" type="traffic_light"/>
    <node id="83" x="-114.59685468397794" y="34.99689919574578"/>
    <node id="84" x="-114.59814009203392" y="34.98234611007888" type="traffic_light"/>
    <node id="85" x="-114.59899466113005" y="34.982346106625315"/>
    <node id="86" x="-114.59698175029283" y="34.982348852583684"/>
    <node id="87" x="-114.59816678133754" y="34.96775726670408" type="traffic_light"/>
    <node id="88" x="-114.59883429509406" y="34.96776001180577"/>
    <node id="89" x="-114.59697193186928" y="34.9677490194186"/>
    <node id="97" x="-114.59913147899391" y="34.978703019106625"/>
    <node id="98" x="-114.59818014541868" y="34.978735992761514" type="traffic_light"/>
    <node id="106" x="-114.59809670666772" y="35.026323979596334"/>
</nodes>
