<?xml version="1.0" ?>
<routes>
    <vType id="car" type="passenger"/>
    <flow id="75_73" from="75_39" to="39_73" number="181" type="car" begin="32400" end="36000"/>
    <flow id="75_106" from="75_39" to="39_106" number="7732" type="car" begin="32400" end="36000"/>
    <flow id="75_74" from="75_39" to="39_74" number="300" type="car" begin="32400" end="36000"/>
    <flow id="106_74" from="106_39" to="39_74" number="214" type="car" begin="32400" end="36000"/>
    <flow id="106_75" from="106_39" to="39_75" number="4961" type="car" begin="32400" end="36000"/>
    <flow id="106_73" from="106_39" to="39_73" number="58" type="car" begin="32400" end="36000"/>
    <flow id="73_106" from="73_39" to="39_106" number="182" type="car" begin="32400" end="36000"/>
    <flow id="73_74" from="73_39" to="39_74" number="122" type="car" begin="32400" end="36000"/>
    <flow id="73_75" from="73_39" to="39_75" number="143" type="car" begin="32400" end="36000"/>
    <flow id="74_75" from="74_39" to="39_75" number="580" type="car" begin="32400" end="36000"/>
    <flow id="74_73" from="74_39" to="39_73" number="140" type="car" begin="32400" end="36000"/>
    <flow id="74_106" from="74_39" to="39_106" number="315" type="car" begin="32400" end="36000"/>
    <flow id="78_76" from="78_75" to="75_76" number="67" type="car" begin="32400" end="36000"/>
    <flow id="78_39" from="78_75" to="75_39" number="649" type="car" begin="32400" end="36000"/>
    <flow id="78_77" from="78_75" to="75_77" number="22" type="car" begin="32400" end="36000"/>
    <flow id="39_77" from="39_75" to="75_77" number="41" type="car" begin="32400" end="36000"/>
    <flow id="39_78" from="39_75" to="75_78" number="541" type="car" begin="32400" end="36000"/>
    <flow id="39_76" from="39_75" to="75_76" number="2" type="car" begin="32400" end="36000"/>
    <flow id="76_39" from="76_75" to="75_39" number="5" type="car" begin="32400" end="36000"/>
    <flow id="76_77" from="76_75" to="75_77" number="18" type="car" begin="32400" end="36000"/>
    <flow id="76_78" from="76_75" to="75_78" number="30" type="car" begin="32400" end="36000"/>
    <flow id="77_78" from="77_75" to="75_78" number="17" type="car" begin="32400" end="36000"/>
    <flow id="77_76" from="77_75" to="75_76" number="14" type="car" begin="32400" end="36000"/>
    <flow id="77_39" from="77_75" to="75_39" number="14" type="car" begin="32400" end="36000"/>
    <flow id="80_75" from="80_78" to="78_75" number="1536" type="car" begin="32400" end="36000"/>
    <flow id="80_79" from="80_78" to="78_79" number="61" type="car" begin="32400" end="36000"/>
    <flow id="75_79" from="75_78" to="78_79" number="79" type="car" begin="32400" end="36000"/>
    <flow id="75_80" from="75_78" to="78_80" number="1175" type="car" begin="32400" end="36000"/>
    <flow id="79_80" from="79_78" to="78_80" number="93" type="car" begin="32400" end="36000"/>
    <flow id="79_75" from="79_78" to="78_75" number="175" type="car" begin="32400" end="36000"/>
    <flow id="82_78" from="82_80" to="80_78" number="1063" type="car" begin="32400" end="36000"/>
    <flow id="82_81" from="82_80" to="80_81" number="42" type="car" begin="32400" end="36000"/>
    <flow id="78_81" from="78_80" to="80_81" number="48" type="car" begin="32400" end="36000"/>
    <flow id="78_82" from="78_80" to="80_82" number="712" type="car" begin="32400" end="36000"/>
    <flow id="81_82" from="81_80" to="80_82" number="27" type="car" begin="32400" end="36000"/>
    <flow id="81_78" from="81_80" to="80_78" number="52" type="car" begin="32400" end="36000"/>
    <flow id="84_80" from="84_82" to="82_80" number="1402" type="car" begin="32400" end="36000"/>
    <flow id="84_83" from="84_82" to="82_83" number="56" type="car" begin="32400" end="36000"/>
    <flow id="80_83" from="80_82" to="82_83" number="72" type="car" begin="32400" end="36000"/>
    <flow id="80_84" from="80_82" to="82_84" number="1074" type="car" begin="32400" end="36000"/>
    <flow id="83_84" from="83_82" to="82_84" number="102" type="car" begin="32400" end="36000"/>
    <flow id="83_80" from="83_82" to="82_80" number="193" type="car" begin="32400" end="36000"/>
    <flow id="98_85" from="98_84" to="84_85" number="17" type="car" begin="32400" end="36000"/>
    <flow id="98_82" from="98_84" to="84_82" number="745" type="car" begin="32400" end="36000"/>
    <flow id="98_86" from="98_84" to="84_86" number="29" type="car" begin="32400" end="36000"/>
    <flow id="82_86" from="82_84" to="84_86" number="23" type="car" begin="32400" end="36000"/>
    <flow id="82_98" from="82_84" to="84_98" number="544" type="car" begin="32400" end="36000"/>
    <flow id="82_85" from="82_84" to="84_85" number="6" type="car" begin="32400" end="36000"/>
    <flow id="85_82" from="85_84" to="84_82" number="12" type="car" begin="32400" end="36000"/>
    <flow id="85_86" from="85_84" to="84_86" number="8" type="car" begin="32400" end="36000"/>
    <flow id="85_98" from="85_84" to="84_98" number="10" type="car" begin="32400" end="36000"/>
    <flow id="86_98" from="86_84" to="84_98" number="41" type="car" begin="32400" end="36000"/>
    <flow id="86_85" from="86_84" to="84_85" number="10" type="car" begin="32400" end="36000"/>
    <flow id="86_82" from="86_84" to="84_82" number="23" type="car" begin="32400" end="36000"/>
    <flow id="31_88" from="31_87" to="87_88" number="17" type="car" begin="32400" end="36000"/>
    <flow id="31_98" from="31_87" to="87_98" number="718" type="car" begin="32400" end="36000"/>
    <flow id="31_89" from="31_87" to="87_89" number="28" type="car" begin="32400" end="36000"/>
    <flow id="98_89" from="98_87" to="87_89" number="21" type="car" begin="32400" end="36000"/>
    <flow id="98_31" from="98_87" to="87_31" number="483" type="car" begin="32400" end="36000"/>
    <flow id="98_88" from="98_87" to="87_88" number="6" type="car" begin="32400" end="36000"/>
    <flow id="88_98" from="88_87" to="87_98" number="23" type="car" begin="32400" end="36000"/>
    <flow id="88_89" from="88_87" to="87_89" number="15" type="car" begin="32400" end="36000"/>
    <flow id="88_31" from="88_87" to="87_31" number="18" type="car" begin="32400" end="36000"/>
    <flow id="89_31" from="89_87" to="87_31" number="77" type="car" begin="32400" end="36000"/>
    <flow id="89_88" from="89_87" to="87_88" number="19" type="car" begin="32400" end="36000"/>
    <flow id="89_98" from="89_87" to="87_98" number="42" type="car" begin="32400" end="36000"/>
    <flow id="87_97" from="87_98" to="98_97" number="74" type="car" begin="32400" end="36000"/>
    <flow id="87_84" from="87_98" to="98_84" number="730" type="car" begin="32400" end="36000"/>
    <flow id="84_87" from="84_98" to="98_87" number="558" type="car" begin="32400" end="36000"/>
    <flow id="84_97" from="84_98" to="98_97" number="25" type="car" begin="32400" end="36000"/>
    <flow id="97_84" from="97_98" to="98_84" number="21" type="car" begin="32400" end="36000"/>
    <flow id="97_87" from="97_98" to="98_87" number="25" type="car" begin="32400" end="36000"/>
</routes>
