<?xml version="1.0" encoding="UTF-8"?>

<!-- generated on 2026-02-03 13:00:07 by Eclipse SUMO jtrrouter Version 1.21.0
<jtrrouterConfiguration xmlns:xsi="http://www.w3.org/2001/XMLSchema-instance" xsi:noNamespaceSchemaLocation="http://sumo.dlr.de/xsd/jtrrouterConfiguration.xsd">

    <input>
        <net-file value="c:/Users/xh8/ORNL_Work/github_workspace/utdf2gmns/datasets/data_bullhead_seg4/utdf_to_sumo/utdf_to_sumo.net.xml"/>
        <route-files value="c:/Users/xh8/ORNL_Work/github_workspace/utdf2gmns/datasets/data_bullhead_seg4/utdf_to_sumo/utdf_to_sumo.flow.xml"/>
    </input>

    <output>
        <output-file value="c:/Users/xh8/ORNL_Work/github_workspace/utdf2gmns/datasets/data_bullhead_seg4/utdf_to_sumo/utdf_to_sumo.rou.xml"/>
    </output>

    <processing>
        <no-internal-links value="false"/>
        <remove-loops value="true"/>
        <accept-all-destinations value="false"/>
    </processing>

    <report>
        <no-warnings value="true"/>
    </report>

</jtrrouterConfiguration>
-->

<routes xmlns:xsi="http://www.w3.org/2001/XMLSchema-instance" xsi:noNamespaceSchemaLocation="http://sumo.dlr.de/xsd/routes_file.xsd">
    <vType id="car"/>
    <vehicle id="106_74.0" type="car" depart="32400.00">
        <route edges="106_39 39_74"/>
    </vehicle>
    <vehicle id="106_75.0" type="car" depart="32400.00">
        <route edges="106_39 39_75"/>
    </vehicle>
    <vehicle id="31_88.0" type="car" depart="32400.00">
        <route edges="31_87 87_88"/>
    </vehicle>
    <vehicle id="31_98.0" type="car" depart="32400.00">
        <route edges="31_87 87_98"/>
    </vehicle>
    <vehicle id="39_77.0" type="car" depart="32400.00">
        <route edges="39_75 75_77"/>
    </vehicle>
    <vehicle id="39_78.0" type="car" depart="32400.00">
        <route edges="39_75 75_78"/>
    </vehicle>
    <vehicle id="73_106.0" type="car" depart="32400.00">
        <route edges="73_39 39_106"/>
    </vehicle>
    <vehicle id="73_74.0" type="car" depart="32400.00">
        <route edges="73_39 39_74"/>
    </vehicle>
    <vehicle id="74_73.0" type="car" depart="32400.00">
        <route edges="74_39 39_73"/>
    </vehicle>
    <vehicle id="74_75.0" type="car" depart="32400.00">
        <route edges="74_39 39_75"/>
    </vehicle>
    <vehicle id="75_106.0" type="car" depart="32400.00">
        <route edges="75_39 39_106"/>
    </vehicle>
    <vehicle id="75_73.0" type="car" depart="32400.00">
        <route edges="75_39 39_73"/>
    </vehicle>
    <vehicle id="75_79.0" type="car" depart="32400.00">
        <route edges="75_78 78_79"/>
    </vehicle>
    <vehicle id="75_80.0" type="car" depart="32400.00">
        <route edges="75_78 78_80"/>
    </vehicle>
    <vehicle id="76_39.0" type="car" depart="32400.00">
        <route edges="76_75 75_39"/>
    </vehicle>
    <vehicle id="76_77.0" type="car" depart="32400.00">
        <route edges="76_75 75_77"/>
    </vehicle>
    <vehicle id="77_76.0" type="car" depart="32400.00">
        <route edges="77_75 75_76"/>
    </vehicle>
    <vehicle id="77_78.0" type="car" depart="32400.00">
        <route edges="77_75 75_78"/>
    </vehicle>
    <vehicle id="78_39.0" type="car" depart="32400.00">
        <route edges="78_75 75_39"/>
    </vehicle>
    <vehicle id="78_76.0" type="car" depart="32400.00">
        <route edges="78_75 75_76"/>
    </vehicle>
    <vehicle id="78_81.0" type="car" depart="32400.00">
        <route edges="78_80 80_81"/>
    </vehicle>
    <vehicle id="78_82.0" type="car" depart="32400.00">
        <route edges="78_80 80_82"/>
    </vehicle>
    <vehicle id="79_80.0" type="car" depart="32400.00">
        <route edges="79_78 78_80"/>
    </vehicle>
    <vehicle id="80_75.0" type="car" depart="32400.00">
        <route edges="80_78 78_75"/>
    </vehicle>
    <vehicle id="80_83.0" type="car" depart="32400.00">
        <route edges="80_82 82_83"/>
    </vehicle>
    <vehicle id="80_84.0" type="car" depart="32400.00">
        <route edges="80_82 82_84"/>
    </vehicle>
    <vehicle id="81_82.0" type="car" depart="32400.00">
        <route edges="81_80 80_82"/>
    </vehicle>
    <vehicle id="82_78.0" type="car" depart="32400.00">
        <route edges="82_80 80_78"/>
    </vehicle>
    <vehicle id="82_86.0" type="car" depart="32400.00">
        <route edges="82_84 84_86"/>
    </vehicle>
    <vehicle id="82_98.0" type="car" depart="32400.00">
        <route edges="82_84 84_98"/>
    </vehicle>
    <vehicle id="83_84.0" type="car" depart="32400.00">
        <route edges="83_82 82_84"/>
    </vehicle>
    <vehicle id="84_80.0" type="car" depart="32400.00">
        <route edges="84_82 82_80"/>
    </vehicle>
    <vehicle id="84_87.0" type="car" depart="32400.00">
        <route edges="84_98 98_87"/>
    </vehicle>
    <vehicle id="85_86.0" type="car" depart="32400.00">
        <route edges="85_84 84_86"/>
    </vehicle>
    <vehicle id="86_85.0" type="car" depart="32400.00">
        <route edges="86_84 84_85"/>
    </vehicle>
    <vehicle id="87_84.0" type="car" depart="32400.00">
        <route edges="87_98 98_84"/>
    </vehicle>
    <vehicle id="87_97.0" type="car" depart="32400.00">
        <route edges="87_98 98_97"/>
    </vehicle>
    <vehicle id="88_89.0" type="car" depart="32400.00">
        <route edges="88_87 87_89"/>
    </vehicle>
    <vehicle id="88_98.0" type="car" depart="32400.00">
        <route edges="88_87 87_98"/>
    </vehicle>
    <vehicle id="89_31.0" type="car" depart="32400.00">
        <route edges="89_87 87_31"/>
    </vehicle>
    <vehicle id="89_88.0" type="car" depart="32400.00">
        <route edges="89_87 87_88"/>
    </vehicle>
    <vehicle id="97_84.0" type="car" depart="32400.00">
        <route edges="97_98 98_84"/>
    </vehicle>
    <vehicle id="98_31.0" type="car" depart="32400.00">
        <route edges="98_87 87_31"/>
    </vehicle>
    <vehicle id="98_82.0" type="car" depart="32400.00">
        <route edges="98_84 84_82"/>
    </vehicle>
    <vehicle id="98_85.0" type="car" depart="32400.00">
        <route edges="98_84 84_85"/>
    </vehicle>
    <vehicle id="98_89.0" type="car" depart="32400.00">
        <route edges="98_87 87_89"/>
    </vehicle>
    <vehicle id="75_106.1" type="car" depart="32400.93">
        <route edges="75_39 39_106"/>
    </vehicle>
    <vehicle id="106_75.1" type="car" depart="32401.45">
        <route edges="106_39 39_75"/>
    </vehicle>
    <vehicle id="75_106.2" type="car" depart="32401.86">
        <route edges="75_39 39_106"/>
    </vehicle>
    <vehicle id="75_106.3" type="car" depart="32402.79">
        <route edges="75_39 39_106"/>
    </vehicle>
    <vehicle id="106_75.2" type="car" depart="32402.90">
        <route edges="106_39 39_75"/>
    </vehicle>
    <vehicle id="75_106.4" type="car" depart="32403.72">
        <route edges="75_39 39_106"/>
    </vehicle>
    <vehicle id="106_75.3" type="car" depart="32404.35">
        <route edges="106_39 39_75"/>
    </vehicle>
    <vehicle id="75_106.5" type="car" depart="32404.66">
        <route edges="75_39 39_106"/>
    </vehicle>
    <vehicle id="80_75.1" type="car" depart="32404.69">
        <route edges="80_78 78_75"/>
    </vehicle>
    <vehicle id="84_80.1" type="car" depart="32405.14">
        <route edges="84_82 82_80"/>
    </vehicle>
    <vehicle id="75_106.6" type="car" depart="32405.59">
        <route edges="75_39 39_106"/>
    </vehicle>
    <vehicle id="106_75.4" type="car" depart="32405.80">
        <route edges="106_39 39_75"/>
    </vehicle>
    <vehicle id="75_80.1" type="car" depart="32406.13">
        <route edges="75_78 78_80"/>
    </vehicle>
    <vehicle id="75_106.7" type="car" depart="32406.52">
        <route edges="75_39 39_106"/>
    </vehicle>
    <vehicle id="80_84.1" type="car" depart="32406.70">
        <route edges="80_82 82_84"/>
    </vehicle>
    <vehicle id="82_78.1" type="car" depart="32406.77">
        <route edges="82_80 80_78"/>
    </vehicle>
    <vehicle id="106_75.5" type="car" depart="32407.26">
        <route edges="106_39 39_75"/>
    </vehicle>
    <vehicle id="75_106.8" type="car" depart="32407.45">
        <route edges="75_39 39_106"/>
    </vehicle>
    <vehicle id="75_106.9" type="car" depart="32408.38">
        <route edges="75_39 39_106"/>
    </vehicle>
    <vehicle id="106_75.6" type="car" depart="32408.71">
        <route edges="106_39 39_75"/>
    </vehicle>
    <vehicle id="75_106.10" type="car" depart="32409.31">
        <route edges="75_39 39_106"/>
    </vehicle>
    <vehicle id="80_75.2" type="car" depart="32409.37">
        <route edges="80_78 78_75"/>
    </vehicle>
    <vehicle id="98_82.1" type="car" depart="32409.66">
        <route edges="98_84 84_82"/>
    </vehicle>
    <vehicle id="87_84.1" type="car" depart="32409.86">
        <route edges="87_98 98_84"/>
    </vehicle>
    <vehicle id="31_98.1" type="car" depart="32410.03">
        <route edges="31_87 87_98"/>
    </vehicle>
    <vehicle id="78_82.1" type="car" depart="32410.11">
        <route edges="78_80 80_82"/>
    </vehicle>
    <vehicle id="106_75.7" type="car" depart="32410.16">
        <route edges="106_39 39_75"/>
    </vehicle>
    <vehicle id="75_106.11" type="car" depart="32410.24">
        <route edges="75_39 39_106"/>
    </vehicle>
    <vehicle id="84_80.2" type="car" depart="32410.27">
        <route edges="84_82 82_80"/>
    </vehicle>
    <vehicle id="78_39.1" type="car" depart="32411.09">
        <route edges="78_75 75_39"/>
    </vehicle>
    <vehicle id="75_106.12" type="car" depart="32411.17">
        <route edges="75_39 39_106"/>
    </vehicle>
    <vehicle id="106_75.8" type="car" depart="32411.61">
        <route edges="106_39 39_75"/>
    </vehicle>
    <vehicle id="75_106.13" type="car" depart="32412.10">
        <route edges="75_39 39_106"/>
    </vehicle>
    <vehicle id="75_80.2" type="car" depart="32412.25">
        <route edges="75_78 78_80"/>
    </vehicle>
    <vehicle id="74_75.1" type="car" depart="32412.41">
        <route edges="74_39 39_75"/>
    </vehicle>
    <vehicle id="84_87.1" type="car" depart="32412.90">
        <route edges="84_98 98_87"/>
    </vehicle>
    <vehicle id="75_106.14" type="car" depart="32413.03">
        <route edges="75_39 39_106"/>
    </vehicle>
    <vehicle id="106_75.9" type="car" depart="32413.06">
        <route edges="106_39 39_75"/>
    </vehicle>
    <vehicle id="82_98.1" type="car" depart="32413.24">
        <route edges="82_84 84_98"/>
    </vehicle>
    <vehicle id="39_78.1" type="car" depart="32413.31">
        <route edges="39_75 75_78"/>
    </vehicle>
    <vehicle id="80_84.2" type="car" depart="32413.41">
        <route edges="80_82 82_84"/>
    </vehicle>
    <vehicle id="82_78.2" type="car" depart="32413.55">
        <route edges="82_80 80_78"/>
    </vehicle>
    <vehicle id="75_106.15" type="car" depart="32413.97">
        <route edges="75_39 39_106"/>
    </vehicle>
    <vehicle id="80_75.3" type="car" depart="32414.06">
        <route edges="80_78 78_75"/>
    </vehicle>
    <vehicle id="106_75.10" type="car" depart="32414.51">
        <route edges="106_39 39_75"/>
    </vehicle>
    <vehicle id="75_106.16" type="car" depart="32414.90">
        <route edges="75_39 39_106"/>
    </vehicle>
    <vehicle id="98_31.1" type="car" depart="32414.91">
        <route edges="98_87 87_31"/>
    </vehicle>
    <vehicle id="84_80.3" type="car" depart="32415.41">
        <route edges="84_82 82_80"/>
    </vehicle>
    <vehicle id="75_106.17" type="car" depart="32415.83">
        <route edges="75_39 39_106"/>
    </vehicle>
    <vehicle id="106_75.11" type="car" depart="32415.96">
        <route edges="106_39 39_75"/>
    </vehicle>
    <vehicle id="75_106.18" type="car" depart="32416.76">
        <route edges="75_39 39_106"/>
    </vehicle>
    <vehicle id="106_75.12" type="car" depart="32417.41">
        <route edges="106_39 39_75"/>
    </vehicle>
    <vehicle id="75_106.19" type="car" depart="32417.69">
        <route edges="75_39 39_106"/>
    </vehicle>
    <vehicle id="75_80.3" type="car" depart="32418.38">
        <route edges="75_78 78_80"/>
    </vehicle>
    <vehicle id="75_106.20" type="car" depart="32418.62">
        <route edges="75_39 39_106"/>
    </vehicle>
    <vehicle id="80_75.4" type="car" depart="32418.75">
        <route edges="80_78 78_75"/>
    </vehicle>
    <vehicle id="106_75.13" type="car" depart="32418.86">
        <route edges="106_39 39_75"/>
    </vehicle>
    <vehicle id="98_82.2" type="car" depart="32419.33">
        <route edges="98_84 84_82"/>
    </vehicle>
    <vehicle id="75_106.21" type="car" depart="32419.55">
        <route edges="75_39 39_106"/>
    </vehicle>
    <vehicle id="87_84.2" type="car" depart="32419.73">
        <route edges="87_98 98_84"/>
    </vehicle>
    <vehicle id="31_98.2" type="car" depart="32420.05">
        <route edges="31_87 87_98"/>
    </vehicle>
    <vehicle id="80_84.3" type="car" depart="32420.11">
        <route edges="80_82 82_84"/>
    </vehicle>
    <vehicle id="78_82.2" type="car" depart="32420.22">
        <route edges="78_80 80_82"/>
    </vehicle>
    <vehicle id="106_75.14" type="car" depart="32420.31">
        <route edges="106_39 39_75"/>
    </vehicle>
    <vehicle id="82_78.3" type="car" depart="32420.32">
        <route edges="82_80 80_78"/>
    </vehicle>
    <vehicle id="75_106.22" type="car" depart="32420.48">
        <route edges="75_39 39_106"/>
    </vehicle>
    <vehicle id="84_80.4" type="car" depart="32420.54">
        <route edges="84_82 82_80"/>
    </vehicle>
    <vehicle id="75_106.23" type="car" depart="32421.41">
        <route edges="75_39 39_106"/>
    </vehicle>
    <vehicle id="106_75.15" type="car" depart="32421.77">
        <route edges="106_39 39_75"/>
    </vehicle>
    <vehicle id="78_39.2" type="car" depart="32422.19">
        <route edges="78_75 75_39"/>
    </vehicle>
    <vehicle id="75_106.24" type="car" depart="32422.34">
        <route edges="75_39 39_106"/>
    </vehicle>
    <vehicle id="106_75.16" type="car" depart="32423.22">
        <route edges="106_39 39_75"/>
    </vehicle>
    <vehicle id="75_106.25" type="car" depart="32423.28">
        <route edges="75_39 39_106"/>
    </vehicle>
    <vehicle id="80_75.5" type="car" depart="32423.44">
        <route edges="80_78 78_75"/>
    </vehicle>
    <vehicle id="75_106.26" type="car" depart="32424.21">
        <route edges="75_39 39_106"/>
    </vehicle>
    <vehicle id="75_80.4" type="car" depart="32424.51">
        <route edges="75_78 78_80"/>
    </vehicle>
    <vehicle id="106_75.17" type="car" depart="32424.67">
        <route edges="106_39 39_75"/>
    </vehicle>
    <vehicle id="74_75.2" type="car" depart="32424.83">
        <route edges="74_39 39_75"/>
    </vehicle>
    <vehicle id="75_106.27" type="car" depart="32425.14">
        <route edges="75_39 39_106"/>
    </vehicle>
    <vehicle id="84_80.5" type="car" depart="32425.68">
        <route edges="84_82 82_80"/>
    </vehicle>
    <vehicle id="84_87.2" type="car" depart="32425.81">
        <route edges="84_98 98_87"/>
    </vehicle>
    <vehicle id="75_106.28" type="car" depart="32426.07">
        <route edges="75_39 39_106"/>
    </vehicle>
    <vehicle id="106_75.18" type="car" depart="32426.12">
        <route edges="106_39 39_75"/>
    </vehicle>
    <vehicle id="82_98.2" type="car" depart="32426.47">
        <route edges="82_84 84_98"/>
    </vehicle>
    <vehicle id="39_78.2" type="car" depart="32426.62">
        <route edges="39_75 75_78"/>
    </vehicle>
    <vehicle id="80_84.4" type="car" depart="32426.81">
        <route edges="80_82 82_84"/>
    </vehicle>
    <vehicle id="75_106.29" type="car" depart="32427.00">
        <route edges="75_39 39_106"/>
    </vehicle>
    <vehicle id="82_78.4" type="car" depart="32427.09">
        <route edges="82_80 80_78"/>
    </vehicle>
    <vehicle id="106_75.19" type="car" depart="32427.57">
        <route edges="106_39 39_75"/>
    </vehicle>
    <vehicle id="75_106.30" type="car" depart="32427.93">
        <route edges="75_39 39_106"/>
    </vehicle>
    <vehicle id="80_75.6" type="car" depart="32428.12">
        <route edges="80_78 78_75"/>
    </vehicle>
    <vehicle id="75_106.31" type="car" depart="32428.86">
        <route edges="75_39 39_106"/>
    </vehicle>
    <vehicle id="98_82.3" type="car" depart="32428.99">
        <route edges="98_84 84_82"/>
    </vehicle>
    <vehicle id="106_75.20" type="car" depart="32429.02">
        <route edges="106_39 39_75"/>
    </vehicle>
    <vehicle id="87_84.3" type="car" depart="32429.59">
        <route edges="87_98 98_84"/>
    </vehicle>
    <vehicle id="75_106.32" type="car" depart="32429.79">
        <route edges="75_39 39_106"/>
    </vehicle>
    <vehicle id="98_31.2" type="car" depart="32429.81">
        <route edges="98_87 87_31"/>
    </vehicle>
    <vehicle id="31_98.3" type="car" depart="32430.08">
        <route edges="31_87 87_98"/>
    </vehicle>
    <vehicle id="78_82.3" type="car" depart="32430.34">
        <route edges="78_80 80_82"/>
    </vehicle>
    <vehicle id="106_75.21" type="car" depart="32430.47">
        <route edges="106_39 39_75"/>
    </vehicle>
    <vehicle id="75_80.5" type="car" depart="32430.64">
        <route edges="75_78 78_80"/>
    </vehicle>
    <vehicle id="75_106.33" type="car" depart="32430.72">
        <route edges="75_39 39_106"/>
    </vehicle>
    <vehicle id="84_80.6" type="car" depart="32430.81">
        <route edges="84_82 82_80"/>
    </vehicle>
    <vehicle id="75_106.34" type="car" depart="32431.65">
        <route edges="75_39 39_106"/>
    </vehicle>
    <vehicle id="106_75.22" type="car" depart="32431.92">
        <route edges="106_39 39_75"/>
    </vehicle>
    <vehicle id="75_106.35" type="car" depart="32432.59">
        <route edges="75_39 39_106"/>
    </vehicle>
    <vehicle id="80_75.7" type="car" depart="32432.81">
        <route edges="80_78 78_75"/>
    </vehicle>
    <vehicle id="78_39.3" type="car" depart="32433.28">
        <route edges="78_75 75_39"/>
    </vehicle>
    <vehicle id="106_75.23" type="car" depart="32433.37">
        <route edges="106_39 39_75"/>
    </vehicle>
    <vehicle id="80_84.5" type="car" depart="32433.52">
        <route edges="80_82 82_84"/>
    </vehicle>
    <vehicle id="75_106.36" type="car" depart="32433.52">
        <route edges="75_39 39_106"/>
    </vehicle>
    <vehicle id="106_74.1" type="car" depart="32433.64">
        <route edges="106_39 39_74"/>
    </vehicle>
    <vehicle id="82_78.5" type="car" depart="32433.87">
        <route edges="82_80 80_78"/>
    </vehicle>
    <vehicle id="75_106.37" type="car" depart="32434.45">
        <route edges="75_39 39_106"/>
    </vehicle>
    <vehicle id="106_75.24" type="car" depart="32434.82">
        <route edges="106_39 39_75"/>
    </vehicle>
    <vehicle id="75_106.38" type="car" depart="32435.38">
        <route edges="75_39 39_106"/>
    </vehicle>
    <vehicle id="84_80.7" type="car" depart="32435.95">
        <route edges="84_82 82_80"/>
    </vehicle>
    <vehicle id="106_75.25" type="car" depart="32436.28">
        <route edges="106_39 39_75"/>
    </vehicle>
    <vehicle id="75_106.39" type="car" depart="32436.31">
        <route edges="75_39 39_106"/>
    </vehicle>
    <vehicle id="75_80.6" type="car" depart="32436.76">
        <route edges="75_78 78_80"/>
    </vehicle>
    <vehicle id="74_75.3" type="car" depart="32437.24">
        <route edges="74_39 39_75"/>
    </vehicle>
    <vehicle id="75_106.40" type="car" depart="32437.24">
        <route edges="75_39 39_106"/>
    </vehicle>
    <vehicle id="80_75.8" type="car" depart="32437.50">
        <route edges="80_78 78_75"/>
    </vehicle>
    <vehicle id="106_75.26" type="car" depart="32437.73">
        <route edges="106_39 39_75"/>
    </vehicle>
    <vehicle id="75_106.41" type="car" depart="32438.17">
        <route edges="75_39 39_106"/>
    </vehicle>
    <vehicle id="98_82.4" type="car" depart="32438.66">
        <route edges="98_84 84_82"/>
    </vehicle>
    <vehicle id="84_87.3" type="car" depart="32438.71">
        <route edges="84_98 98_87"/>
    </vehicle>
    <vehicle id="75_106.42" type="car" depart="32439.10">
        <route edges="75_39 39_106"/>
    </vehicle>
    <vehicle id="106_75.27" type="car" depart="32439.18">
        <route edges="106_39 39_75"/>
    </vehicle>
    <vehicle id="87_84.4" type="car" depart="32439.45">
        <route edges="87_98 98_84"/>
    </vehicle>
    <vehicle id="73_106.1" type="car" depart="32439.56">
        <route edges="73_39 39_106"/>
    </vehicle>
    <vehicle id="82_98.3" type="car" depart="32439.71">
        <route edges="82_84 84_98"/>
    </vehicle>
    <vehicle id="75_73.1" type="car" depart="32439.78">
        <route edges="75_39 39_73"/>
    </vehicle>
    <vehicle id="39_78.3" type="car" depart="32439.92">
        <route edges="39_75 75_78"/>
    </vehicle>
    <vehicle id="75_106.43" type="car" depart="32440.03">
        <route edges="75_39 39_106"/>
    </vehicle>
    <vehicle id="31_98.4" type="car" depart="32440.11">
        <route edges="31_87 87_98"/>
    </vehicle>
    <vehicle id="80_84.6" type="car" depart="32440.22">
        <route edges="80_82 82_84"/>
    </vehicle>
    <vehicle id="78_82.4" type="car" depart="32440.45">
        <route edges="78_80 80_82"/>
    </vehicle>
    <vehicle id="106_75.28" type="car" depart="32440.63">
        <route edges="106_39 39_75"/>
    </vehicle>
    <vehicle id="82_78.6" type="car" depart="32440.64">
        <route edges="82_80 80_78"/>
    </vehicle>
    <vehicle id="75_106.44" type="car" depart="32440.96">
        <route edges="75_39 39_106"/>
    </vehicle>
    <vehicle id="84_80.8" type="car" depart="32441.08">
        <route edges="84_82 82_80"/>
    </vehicle>
    <vehicle id="75_106.45" type="car" depart="32441.90">
        <route edges="75_39 39_106"/>
    </vehicle>
    <vehicle id="106_75.29" type="car" depart="32442.08">
        <route edges="106_39 39_75"/>
    </vehicle>
    <vehicle id="80_75.9" type="car" depart="32442.18">
        <route edges="80_78 78_75"/>
    </vehicle>
    <vehicle id="75_106.46" type="car" depart="32442.83">
        <route edges="75_39 39_106"/>
    </vehicle>
    <vehicle id="75_80.7" type="car" depart="32442.89">
        <route edges="75_78 78_80"/>
    </vehicle>
    <vehicle id="106_75.30" type="car" depart="32443.53">
        <route edges="106_39 39_75"/>
    </vehicle>
    <vehicle id="75_106.47" type="car" depart="32443.76">
        <route edges="75_39 39_106"/>
    </vehicle>
    <vehicle id="78_39.4" type="car" depart="32444.37">
        <route edges="78_75 75_39"/>
    </vehicle>
    <vehicle id="75_106.48" type="car" depart="32444.69">
        <route edges="75_39 39_106"/>
    </vehicle>
    <vehicle id="98_31.3" type="car" depart="32444.72">
        <route edges="98_87 87_31"/>
    </vehicle>
    <vehicle id="106_75.31" type="car" depart="32444.98">
        <route edges="106_39 39_75"/>
    </vehicle>
    <vehicle id="75_106.49" type="car" depart="32445.62">
        <route edges="75_39 39_106"/>
    </vehicle>
    <vehicle id="84_80.9" type="car" depart="32446.22">
        <route edges="84_82 82_80"/>
    </vehicle>
    <vehicle id="106_75.32" type="car" depart="32446.43">
        <route edges="106_39 39_75"/>
    </vehicle>
    <vehicle id="75_106.50" type="car" depart="32446.55">
        <route edges="75_39 39_106"/>
    </vehicle>
    <vehicle id="80_75.10" type="car" depart="32446.87">
        <route edges="80_78 78_75"/>
    </vehicle>
    <vehicle id="80_84.7" type="car" depart="32446.92">
        <route edges="80_82 82_84"/>
    </vehicle>
    <vehicle id="82_78.7" type="car" depart="32447.41">
        <route edges="82_80 80_78"/>
    </vehicle>
    <vehicle id="75_106.51" type="car" depart="32447.48">
        <route edges="75_39 39_106"/>
    </vehicle>
    <vehicle id="106_75.33" type="car" depart="32447.88">
        <route edges="106_39 39_75"/>
    </vehicle>
    <vehicle id="98_82.5" type="car" depart="32448.32">
        <route edges="98_84 84_82"/>
    </vehicle>
    <vehicle id="75_106.52" type="car" depart="32448.41">
        <route edges="75_39 39_106"/>
    </vehicle>
    <vehicle id="75_80.8" type="car" depart="32449.02">
        <route edges="75_78 78_80"/>
    </vehicle>
    <vehicle id="87_84.5" type="car" depart="32449.32">
        <route edges="87_98 98_84"/>
    </vehicle>
    <vehicle id="106_75.34" type="car" depart="32449.33">
        <route edges="106_39 39_75"/>
    </vehicle>
    <vehicle id="75_106.53" type="car" depart="32449.34">
        <route edges="75_39 39_106"/>
    </vehicle>
    <vehicle id="74_75.4" type="car" depart="32449.65">
        <route edges="74_39 39_75"/>
    </vehicle>
    <vehicle id="31_98.5" type="car" depart="32450.14">
        <route edges="31_87 87_98"/>
    </vehicle>
    <vehicle id="75_106.54" type="car" depart="32450.27">
        <route edges="75_39 39_106"/>
    </vehicle>
    <vehicle id="78_82.5" type="car" depart="32450.56">
        <route edges="78_80 80_82"/>
    </vehicle>
    <vehicle id="106_75.35" type="car" depart="32450.79">
        <route edges="106_39 39_75"/>
    </vehicle>
    <vehicle id="75_106.55" type="car" depart="32451.21">
        <route edges="75_39 39_106"/>
    </vehicle>
    <vehicle id="84_80.10" type="car" depart="32451.35">
        <route edges="84_82 82_80"/>
    </vehicle>
    <vehicle id="74_73.1" type="car" depart="32451.43">
        <route edges="74_39 39_73"/>
    </vehicle>
    <vehicle id="80_75.11" type="car" depart="32451.56">
        <route edges="80_78 78_75"/>
    </vehicle>
    <vehicle id="84_87.4" type="car" depart="32451.61">
        <route edges="84_98 98_87"/>
    </vehicle>
    <vehicle id="75_106.56" type="car" depart="32452.14">
        <route edges="75_39 39_106"/>
    </vehicle>
    <vehicle id="106_75.36" type="car" depart="32452.24">
        <route edges="106_39 39_75"/>
    </vehicle>
    <vehicle id="82_98.4" type="car" depart="32452.94">
        <route edges="82_84 84_98"/>
    </vehicle>
    <vehicle id="75_106.57" type="car" depart="32453.07">
        <route edges="75_39 39_106"/>
    </vehicle>
    <vehicle id="39_78.4" type="car" depart="32453.23">
        <route edges="39_75 75_78"/>
    </vehicle>
    <vehicle id="80_84.8" type="car" depart="32453.62">
        <route edges="80_82 82_84"/>
    </vehicle>
    <vehicle id="106_75.37" type="car" depart="32453.69">
        <route edges="106_39 39_75"/>
    </vehicle>
    <vehicle id="75_106.58" type="car" depart="32454.00">
        <route edges="75_39 39_106"/>
    </vehicle>
    <vehicle id="82_78.8" type="car" depart="32454.18">
        <route edges="82_80 80_78"/>
    </vehicle>
    <vehicle id="75_106.59" type="car" depart="32454.93">
        <route edges="75_39 39_106"/>
    </vehicle>
    <vehicle id="106_75.38" type="car" depart="32455.14">
        <route edges="106_39 39_75"/>
    </vehicle>
    <vehicle id="75_80.9" type="car" depart="32455.14">
        <route edges="75_78 78_80"/>
    </vehicle>
    <vehicle id="78_39.5" type="car" depart="32455.47">
        <route edges="78_75 75_39"/>
    </vehicle>
    <vehicle id="75_106.60" type="car" depart="32455.86">
        <route edges="75_39 39_106"/>
    </vehicle>
    <vehicle id="80_75.12" type="car" depart="32456.24">
        <route edges="80_78 78_75"/>
    </vehicle>
    <vehicle id="84_80.11" type="car" depart="32456.49">
        <route edges="84_82 82_80"/>
    </vehicle>
    <vehicle id="106_75.39" type="car" depart="32456.59">
        <route edges="106_39 39_75"/>
    </vehicle>
    <vehicle id="75_106.61" type="car" depart="32456.79">
        <route edges="75_39 39_106"/>
    </vehicle>
    <vehicle id="75_106.62" type="car" depart="32457.72">
        <route edges="75_39 39_106"/>
    </vehicle>
    <vehicle id="98_82.6" type="car" depart="32457.98">
        <route edges="98_84 84_82"/>
    </vehicle>
    <vehicle id="106_75.40" type="car" depart="32458.04">
        <route edges="106_39 39_75"/>
    </vehicle>
    <vehicle id="75_106.63" type="car" depart="32458.65">
        <route edges="75_39 39_106"/>
    </vehicle>
    <vehicle id="73_74.1" type="car" depart="32459.02">
        <route edges="73_39 39_74"/>
    </vehicle>
    <vehicle id="87_84.6" type="car" depart="32459.18">
        <route edges="87_98 98_84"/>
    </vehicle>
    <vehicle id="106_75.41" type="car" depart="32459.49">
        <route edges="106_39 39_75"/>
    </vehicle>
    <vehicle id="75_106.64" type="car" depart="32459.58">
        <route edges="75_39 39_106"/>
    </vehicle>
    <vehicle id="98_31.4" type="car" depart="32459.62">
        <route edges="98_87 87_31"/>
    </vehicle>
    <vehicle id="31_98.6" type="car" depart="32460.16">
        <route edges="31_87 87_98"/>
    </vehicle>
    <vehicle id="80_84.9" type="car" depart="32460.33">
        <route edges="80_82 82_84"/>
    </vehicle>
    <vehicle id="75_106.65" type="car" depart="32460.52">
        <route edges="75_39 39_106"/>
    </vehicle>
    <vehicle id="78_82.6" type="car" depart="32460.67">
        <route edges="78_80 80_82"/>
    </vehicle>
    <vehicle id="80_75.13" type="car" depart="32460.93">
        <route edges="80_78 78_75"/>
    </vehicle>
    <vehicle id="106_75.42" type="car" depart="32460.94">
        <route edges="106_39 39_75"/>
    </vehicle>
    <vehicle id="82_78.9" type="car" depart="32460.96">
        <route edges="82_80 80_78"/>
    </vehicle>
    <vehicle id="75_80.10" type="car" depart="32461.27">
        <route edges="75_78 78_80"/>
    </vehicle>
    <vehicle id="75_106.66" type="car" depart="32461.45">
        <route edges="75_39 39_106"/>
    </vehicle>
    <vehicle id="84_80.12" type="car" depart="32461.62">
        <route edges="84_82 82_80"/>
    </vehicle>
    <vehicle id="74_75.5" type="car" depart="32462.07">
        <route edges="74_39 39_75"/>
    </vehicle>
    <vehicle id="75_106.67" type="car" depart="32462.38">
        <route edges="75_39 39_106"/>
    </vehicle>
    <vehicle id="106_75.43" type="car" depart="32462.39">