<?xml version="1.0" ?>
<routes>
    <vType id="car" type="passenger"/>
    <flow id="225_2" from="225_3" to="3_2" number="32" type="car" begin="27000" end="34200"/>
    <flow id="225_351" from="225_3" to="3_351" number="1120" type="car" begin="27000" end="34200"/>
    <flow id="225_352" from="225_3" to="3_352" number="78" type="car" begin="27000" end="34200"/>
    <flow id="351_352" from="351_3" to="3_352" number="41" type="car" begin="27000" end="34200"/>
    <flow id="351_225" from="351_3" to="3_225" number="629" type="car" begin="27000" end="34200"/>
    <flow id="351_2" from="351_3" to="3_2" number="20" type="car" begin="27000" end="34200"/>
    <flow id="2_351" from="2_3" to="3_351" number="53" type="car" begin="27000" end="34200"/>
    <flow id="2_352" from="2_3" to="3_352" number="97" type="car" begin="27000" end="34200"/>
    <flow id="2_225" from="2_3" to="3_225" number="100" type="car" begin="27000" end="34200"/>
    <flow id="352_225" from="352_3" to="3_225" number="192" type="car" begin="27000" end="34200"/>
    <flow id="352_2" from="352_3" to="3_2" number="171" type="car" begin="27000" end="34200"/>
    <flow id="352_351" from="352_3" to="3_351" number="179" type="car" begin="27000" end="34200"/>
    <flow id="503_284" from="503_5" to="5_284" number="199" type="car" begin="27000" end="34200"/>
    <flow id="503_312" from="503_5" to="5_312" number="390" type="car" begin="27000" end="34200"/>
    <flow id="503_313" from="503_5" to="5_313" number="131" type="car" begin="27000" end="34200"/>
    <flow id="312_313" from="312_5" to="5_313" number="82" type="car" begin="27000" end="34200"/>
    <flow id="312_503" from="312_5" to="5_503" number="357" type="car" begin="27000" end="34200"/>
    <flow id="312_284" from="312_5" to="5_284" number="66" type="car" begin="27000" end="34200"/>
    <flow id="284_312" from="284_5" to="5_312" number="5" type="car" begin="27000" end="34200"/>
    <flow id="284_313" from="284_5" to="5_313" number="2" type="car" begin="27000" end="34200"/>
    <flow id="284_503" from="284_5" to="5_503" number="37" type="car" begin="27000" end="34200"/>
    <flow id="313_503" from="313_5" to="5_503" number="22" type="car" begin="27000" end="34200"/>
    <flow id="313_284" from="313_5" to="5_284" number="10" type="car" begin="27000" end="34200"/>
    <flow id="313_312" from="313_5" to="5_312" number="63" type="car" begin="27000" end="34200"/>
    <flow id="7002_306" from="7002_6" to="6_306" number="853" type="car" begin="27000" end="34200"/>
    <flow id="7002_343" from="7002_6" to="6_343" number="237" type="car" begin="27000" end="34200"/>
    <flow id="306_343" from="306_6" to="6_343" number="69" type="car" begin="27000" end="34200"/>
    <flow id="306_7002" from="306_6" to="6_7002" number="1041" type="car" begin="27000" end="34200"/>
    <flow id="339_306" from="339_6" to="6_306" number="294" type="car" begin="27000" end="34200"/>
    <flow id="339_343" from="339_6" to="6_343" number="32" type="car" begin="27000" end="34200"/>
    <flow id="339_7002" from="339_6" to="6_7002" number="853" type="car" begin="27000" end="34200"/>
    <flow id="10_484" from="10_7" to="7_484" number="39" type="car" begin="27000" end="34200"/>
    <flow id="10_225" from="10_7" to="7_225" number="1211" type="car" begin="27000" end="34200"/>
    <flow id="10_326" from="10_7" to="7_326" number="26" type="car" begin="27000" end="34200"/>
    <flow id="225_326" from="225_7" to="7_326" number="10" type="car" begin="27000" end="34200"/>
    <flow id="225_10" from="225_7" to="7_10" number="1063" type="car" begin="27000" end="34200"/>
    <flow id="225_484" from="225_7" to="7_484" number="26" type="car" begin="27000" end="34200"/>
    <flow id="484_225" from="484_7" to="7_225" number="1" type="car" begin="27000" end="34200"/>
    <flow id="484_326" from="484_7" to="7_326" number="8" type="car" begin="27000" end="34200"/>
    <flow id="484_10" from="484_7" to="7_10" number="50" type="car" begin="27000" end="34200"/>
    <flow id="326_10" from="326_7" to="7_10" number="17" type="car" begin="27000" end="34200"/>
    <flow id="326_484" from="326_7" to="7_484" number="7" type="car" begin="27000" end="34200"/>
    <flow id="326_225" from="326_7" to="7_225" number="14" type="car" begin="27000" end="34200"/>
    <flow id="329_507" from="329_8" to="8_507" number="121" type="car" begin="27000" end="34200"/>
    <flow id="329_314" from="329_8" to="8_314" number="220" type="car" begin="27000" end="34200"/>
    <flow id="329_320" from="329_8" to="8_320" number="99" type="car" begin="27000" end="34200"/>
    <flow id="314_320" from="314_8" to="8_320" number="57" type="car" begin="27000" end="34200"/>
    <flow id="314_329" from="314_8" to="8_329" number="175" type="car" begin="27000" end="34200"/>
    <flow id="314_507" from="314_8" to="8_507" number="18" type="car" begin="27000" end="34200"/>
    <flow id="507_314" from="507_8" to="8_314" number="30" type="car" begin="27000" end="34200"/>
    <flow id="507_320" from="507_8" to="8_320" number="88" type="car" begin="27000" end="34200"/>
    <flow id="507_329" from="507_8" to="8_329" number="78" type="car" begin="27000" end="34200"/>
    <flow id="320_329" from="320_8" to="8_329" number="172" type="car" begin="27000" end="34200"/>
    <flow id="320_507" from="320_8" to="8_507" number="713" type="car" begin="27000" end="34200"/>
    <flow id="320_314" from="320_8" to="8_314" number="543" type="car" begin="27000" end="34200"/>
    <flow id="349_319" from="349_9" to="9_319" number="21" type="car" begin="27000" end="34200"/>
    <flow id="349_350" from="349_9" to="9_350" number="17" type="car" begin="27000" end="34200"/>
    <flow id="349_10" from="349_9" to="9_10" number="24" type="car" begin="27000" end="34200"/>
    <flow id="350_10" from="350_9" to="9_10" number="84" type="car" begin="27000" end="34200"/>
    <flow id="350_349" from="350_9" to="9_349" number="13" type="car" begin="27000" end="34200"/>
    <flow id="350_319" from="350_9" to="9_319" number="324" type="car" begin="27000" end="34200"/>
    <flow id="319_350" from="319_9" to="9_350" number="93" type="car" begin="27000" end="34200"/>
    <flow id="319_10" from="319_9" to="9_10" number="141" type="car" begin="27000" end="34200"/>
    <flow id="319_349" from="319_9" to="9_349" number="10" type="car" begin="27000" end="34200"/>
    <flow id="10_349" from="10_9" to="9_349" number="15" type="car" begin="27000" end="34200"/>
    <flow id="10_319" from="10_9" to="9_319" number="1191" type="car" begin="27000" end="34200"/>
    <flow id="10_350" from="10_9" to="9_350" number="65" type="car" begin="27000" end="34200"/>
    <flow id="17_9" from="17_10" to="10_9" number="657" type="car" begin="27000" end="34200"/>
    <flow id="17_7" from="17_10" to="10_7" number="1082" type="car" begin="27000" end="34200"/>
    <flow id="17_11" from="17_10" to="10_11" number="91" type="car" begin="27000" end="34200"/>
    <flow id="7_11" from="7_10" to="10_11" number="18" type="car" begin="27000" end="34200"/>
    <flow id="7_17" from="7_10" to="10_17" number="996" type="car" begin="27000" end="34200"/>
    <flow id="7_9" from="7_10" to="10_9" number="175" type="car" begin="27000" end="34200"/>
    <flow id="9_7" from="9_10" to="10_7" number="67" type="car" begin="27000" end="34200"/>
    <flow id="9_11" from="9_10" to="10_11" number="77" type="car" begin="27000" end="34200"/>
    <flow id="9_17" from="9_10" to="10_17" number="139" type="car" begin="27000" end="34200"/>
    <flow id="11_17" from="11_10" to="10_17" number="105" type="car" begin="27000" end="34200"/>
    <flow id="11_9" from="11_10" to="10_9" number="573" type="car" begin="27000" end="34200"/>
    <flow id="11_7" from="11_10" to="10_7" number="1" type="car" begin="27000" end="34200"/>
    <flow id="19_11" from="19_12" to="12_11" number="298" type="car" begin="27000" end="34200"/>
    <flow id="19_328" from="19_12" to="12_328" number="1187" type="car" begin="27000" end="34200"/>
    <flow id="328_19" from="328_12" to="12_19" number="512" type="car" begin="27000" end="34200"/>
    <flow id="328_11" from="328_12" to="12_11" number="219" type="car" begin="27000" end="34200"/>
    <flow id="11_328" from="11_12" to="12_328" number="71" type="car" begin="27000" end="34200"/>
    <flow id="11_19" from="11_12" to="12_19" number="87" type="car" begin="27000" end="34200"/>
    <flow id="24_7001" from="24_13" to="13_7001" number="64" type="car" begin="27000" end="34200"/>
    <flow id="24_7002" from="24_13" to="13_7002" number="879" type="car" begin="27000" end="34200"/>
    <flow id="24_486" from="24_13" to="13_486" number="74" type="car" begin="27000" end="34200"/>
    <flow id="7002_486" from="7002_13" to="13_486" number="406" type="car" begin="27000" end="34200"/>
    <flow id="7002_24" from="7002_13" to="13_24" number="1269" type="car" begin="27000" end="34200"/>
    <flow id="7002_7001" from="7002_13" to="13_7001" number="406" type="car" begin="27000" end="34200"/>
    <flow id="7001_7002" from="7001_13" to="13_7002" number="64" type="car" begin="27000" end="34200"/>
    <flow id="7001_486" from="7001_13" to="13_486" number="31" type="car" begin="27000" end="34200"/>
    <flow id="7001_24" from="7001_13" to="13_24" number="14" type="car" begin="27000" end="34200"/>
    <flow id="486_24" from="486_13" to="13_24" number="62" type="car" begin="27000" end="34200"/>
    <flow id="486_7001" from="486_13" to="13_7001" number="109" type="car" begin="27000" end="34200"/>
    <flow id="486_7002" from="486_13" to="13_7002" number="262" type="car" begin="27000" end="34200"/>
    <flow id="5230_486" from="5230_14" to="14_486" number="95" type="car" begin="27000" end="34200"/>
    <flow id="5230_7003" from="5230_14" to="14_7003" number="6" type="car" begin="27000" end="34200"/>
    <flow id="5230_247" from="5230_14" to="14_247" number="32" type="car" begin="27000" end="34200"/>
    <flow id="7003_247" from="7003_14" to="14_247" number="7" type="car" begin="27000" end="34200"/>
    <flow id="7003_5230" from="7003_14" to="14_5230" number="9" type="car" begin="27000" end="34200"/>
    <flow id="7003_486" from="7003_14" to="14_486" number="3" type="car" begin="27000" end="34200"/>
    <flow id="486_7003" from="486_14" to="14_7003" number="8" type="car" begin="27000" end="34200"/>
    <flow id="486_247" from="486_14" to="14_247" number="443" type="car" begin="27000" end="34200"/>
    <flow id="486_5230" from="486_14" to="14_5230" number="33" type="car" begin="27000" end="34200"/>
    <flow id="247_5230" from="247_14" to="14_5230" number="22" type="car" begin="27000" end="34200"/>
    <flow id="247_486" from="247_14" to="14_486" number="286" type="car" begin="27000" end="34200"/>
    <flow id="247_7003" from="247_14" to="14_7003" number="6" type="car" begin="27000" end="34200"/>
    <flow id="509_7203" from="509_16" to="16_7203" number="1" type="car" begin="27000" end="34200"/>
    <flow id="509_143" from="509_16" to="16_143" number="62" type="car" begin="27000" end="34200"/>
    <flow id="509_5204" from="509_16" to="16_5204" number="93" type="car" begin="27000" end="34200"/>
    <flow id="143_5204" from="143_16" to="16_5204" number="210" type="car" begin="27000" end="34200"/>
    <flow id="143_509" from="143_16" to="16_509" number="213" type="car" begin="27000" end="34200"/>
    <flow id="143_7203" from="143_16" to="16_7203" number="1" type="car" begin="27000" end="34200"/>
    <flow id="5204_509" from="5204_16" to="16_509" number="186" type="car" begin="27000" end="34200"/>
    <flow id="5204_7203" from="5204_16" to="16_7203" number="6" type="car" begin="27000" end="34200"/>
    <flow id="5204_143" from="5204_16" to="16_143" number="337" type="car" begin="27000" end="34200"/>
    <flow id="224_317" from="224_17" to="17_317" number="394" type="car" begin="27000" end="34200"/>
    <flow id="224_10" from="224_17" to="17_10" number="1159" type="car" begin="27000" end="34200"/>
    <flow id="224_496" from="224_17" to="17_496" number="227" type="car" begin="27000" end="34200"/>
    <flow id="10_496" from="10_17" to="17_496" number="320" type="car" begin="27000" end="34200"/>
    <flow id="10_224" from="10_17" to="17_224" number="1316" type="car" begin="27000" end="34200"/>
    <flow id="10_317" from="10_17" to="17_317" number="492" type="car" begin="27000" end="34200"/>
    <flow id="317_10" from="317_17" to="17_10" number="397" type="car" begin="27000" end="34200"/>
    <flow id="317_224" from="317_17" to="17_224" number="778" type="car" begin="27000" end="34200"/>
    <flow id="496_224" from="496_17" to="17_224" number="685" type="car" begin="27000" end="34200"/>
    <flow id="496_10" from="496_17" to="17_10" number="653" type="car" begin="27000" end="34200"/>
    <flow id="33_21" from="33_18" to="18_21" number="236" type="car" begin="27000" end="34200"/>
    <flow id="33_224" from="33_18" to="18_224" number="1037" type="car" begin="27000" end="34200"/>
    <flow id="33_5213" from="33_18" to="18_5213" number="34" type="car" begin="27000" end="34200"/>
    <flow id="224_5213" from="224_18" to="18_5213" number="47" type="car" begin="27000" end="34200"/>
    <flow id="224_33" from="224_18" to="18_33" number="1063" type="car" begin="27000" end="34200"/>
    <flow id="224_21" from="224_18" to="18_21" number="542" type="car" begin="27000" end="34200"/>
    <flow id="21_224" from="21_18" to="18_224" number="100" type="car" begin="27000" end="34200"/>
    <flow id="21_5213" from="21_18" to="18_5213" number="70" type="car" begin="27000" end="34200"/>
    <flow id="21_33" from="21_18" to="18_33" number="19" type="car" begin="27000" end="34200"/>
    <flow id="5213_33" from="5213_18" to="18_33" number="102" type="car" begin="27000" end="34200"/>
    <flow id="5213_21" from="5213_18" to="18_21" number="780" type="car" begin="27000" end="34200"/>
    <flow id="5213_224" from="5213_18" to="18_224" number="141" type="car" begin="27000" end="34200"/>
    <flow id="42_393" from="42_19" to="19_393" number="391" type="car" begin="27000" end="34200"/>
    <flow id="42_12" from="42_19" to="19_12" number="1095" type="car" begin="27000" end="34200"/>
    <flow id="12_42" from="12_19" to="19_42" number="508" type="car" begin="27000" end="34200"/>
    <flow id="12_393" from="12_19" to="19_393" number="194" type="car" begin="27000" end="34200"/>
    <flow id="393_12" from="393_19" to="19_12" number="321" type="car" begin="27000" end="34200"/>
    <flow id="393_42" from="393_19" to="19_42" number="375" type="car" begin="27000" end="34200"/>
    <flow id="51_249" from="51_20" to="20_249" number="106" type="car" begin="27000" end="34200"/>
    <flow id="51_42" from="51_20" to="20_42" number="1249" type="car" begin="27000" end="34200"/>
    <flow id="51_37" from="51_20" to="20_37" number="54" type="car" begin="27000" end="34200"/>
    <flow id="42_37" from="42_20" to="20_37" number="139" type="car" begin="27000" end="34200"/>
    <flow id="42_51" from="42_20" to="20_51" number="525" type="car" begin="27000" end="34200"/>
    <flow id="42_249" from="42_20" to="20_249" number="78" type="car" begin="27000" end="34200"/>
    <flow id="249_42" from="249_20" to="20_42" number="27" type="car" begin="27000" end="34200"/>
    <flow id="249_37" from="249_20" to="20_37" number="74" type="car" begin="27000" end="34200"/>
    <flow id="249_51" from="249_20" to="20_51" number="17" type="car" begin="27000" end="34200"/>
    <flow id="37_51" from="37_20" to="20_51" number="90" type="car" begin="27000" end="34200"/>
    <flow id="37_249" from="37_20" to="20_249" number="672" type="car" begin="27000" end="34200"/>
    <flow id="37_42" from="37_20" to="20_42" number="327" type="car" begin="27000" end="34200"/>
    <flow id="48_59" from="48_21" to="21_59" number="23" type="car" begin="27000" end="34200"/>
    <flow id="48_7005" from="48_21" to="21_7005" number="22" type="car" begin="27000" end="34200"/>
    <flow id="48_18" from="48_21" to="21_18" number="22" type="car" begin="27000" end="34200"/>
    <flow id="7005_18" from="7005_21" to="21_18" number="4" type="car" begin="27000" end="34200"/>
    <flow id="7005_48" from="7005_21" to="21_48" number="1" type="car" begin="27000" end="34200"/>
    <flow id="7005_59" from="7005_21" to="21_59" number="1" type="car" begin="27000" end="34200"/>
    <flow id="59_7005" from="59_21" to="21_7005" number="22" type="car" begin="27000" end="34200"/>
    <flow id="59_18" from="59_21" to="21_18" number="144" type="car" begin="27000" end="34200"/>
    <flow id="59_48" from="59_21" to="21_48" number="84" type="car" begin="27000" end="34200"/>
    <flow id="18_48" from="18_21" to="21_48" number="490" type="car" begin="27000" end="34200"/>
    <flow id="18_59" from="18_21" to="21_59" number="818" type="car" begin="27000" end="34200"/>
    <flow id="18_7005" from="18_21" to="21_7005" number="312" type="car" begin="27000" end="34200"/>
    <flow id="7009_322" from="7009_22" to="22_322" number="34" type="car" begin="27000" end="34200"/>
    <flow id="7009_55" from="7009_22" to="22_55" number="282" type="car" begin="27000" end="34200"/>
    <flow id="7009_5217" from="7009_22" to="22_5217" number="526" type="car" begin="27000" end="34200"/>
    <flow id="5217_322" from="5217_22" to="22_322" number="122" type="car" begin="27000" end="34200"/>
    <flow id="5217_55" from="5217_22" to="22_55" number="59" type="car" begin="27000" end="34200"/>
    <flow id="322_55" from="322_22" to="22_55" number="199" type="car" begin="27000" end="34200"/>
    <flow id="322_5217" from="322_22" to="22_5217" number="1364" type="car" begin="27000" end="34200"/>
    <flow id="5206_7205" from="5206_23" to="23_7205" number="14" type="car" begin="27000" end="34200"/>
    <flow id="5206_509" from="5206_23" to="23_509" number="104" type="car" begin="27000" end="34200"/>
    <flow id="5206_27" from="5206_23" to="23_27" number="22" type="car" begin="27000" end="34200"/>
    <flow id="509_27" from="509_23" to="23_27" number="48" type="car" begin="27000" end="34200"/>
    <flow id="509_5206" from="509_23" to="23_5206" number="123" type="car" begin="27000" end="34200"/>
    <flow id="509_7205" from="509_23" to="23_7205" number="70" type="car" begin="27000" end="34200"/>
    <flow id="7205_509" from="7205_23" to="23_509" number="54" type="car" begin="27000" end="34200"/>
    <flow id="7205_27" from="7205_23" to="23_27" number="141" type="car" begin="27000" end="34200"/>
    <flow id="7205_5206" from="7205_23" to="23_5206" number="30" type="car" begin="27000" end="34200"/>
    <flow id="27_5206" from="27_23" to="23_5206" number="14" type="car" begin="27000" end="34200"/>
    <flow id="27_7205" from="27_23" to="23_7205" number="62" type="car" begin="27000" end="34200"/>
    <flow id="27_509" from="27_23" to="23_509" number="24" type="car" begin="27000" end="34200"/>
    <flow id="36_7061" from="36_24" to="24_7061" number="5" type="car" begin="27000" end="34200"/>
    <flow id="36_13" from="36_24" to="24_13" number="923" type="car" begin="27000" end="34200"/>
    <flow id="36_7201" from="36_24" to="24_7201" number="48" type="car" begin="27000" end="34200"/>
    <flow id="13_7201" from="13_24" to="24_7201" number="68" type="car" begin="27000" end="34200"/>
    <flow id="13_36" from="13_24" to="24_36" number="1095" type="car" begin="27000" end="34200"/>
    <flow id="13_7061" from="13_24" to="24_7061" number="11" type="car" begin="27000" end="34200"/>
    <flow id="7061_13" from="7061_24" to="24_13" number="9" type="car" begin="27000" end="34200"/>
    <flow id="7061_7201" from="7061_24" to="24_7201" number="12" type="car" begin="27000" end="34200"/>
    <flow id="7061_36" from="7061_24" to="24_36" number="8" type="car" begin="27000" end="34200"/>
    <flow id="7201_36" from="7201_24" to="24_36" number="30" type="car" begin="27000" end="34200"/>
    <flow id="7201_7061" from="7201_24" to="24_7061" number="8" type="car" begin="27000" end="34200"/>
    <flow id="7201_13" from="7201_24" to="24_13" number="94" type="car" begin="27000" end="34200"/>
    <flow id="395_36" from="395_25" to="25_36" number="15" type="car" begin="27000" end="34200"/>
    <flow id="395_396" from="395_25" to="25_396" number="14" type="car" begin="27000" end="34200"/>
    <flow id="395_38" from="395_25" to="25_38" number="8" type="car" begin="27000" end="34200"/>
    <flow id="396_38" from="396_25" to="25_38" number="17" type="car" begin="27000" end="34200"/>
    <flow id="396_395" from="396_25" to="25_395" number="11" type="car" begin="27000" end="34200"/>
    <flow id="396_36" from="396_25" to="25_36" number="54" type="car" begin="27000" end="34200"/>
    <flow id="36_396" from="36_25" to="25_396" number="21" type="car" begin="27000" end="34200"/>
    <flow id="36_38" from="36_25" to="25_38" number="665" type="car" begin="27000" end="34200"/>
    <flow id="36_395" from="36_25" to="25_395" number="8" type="car" begin="27000" end="34200"/>
    <flow id="38_395" from="38_25" to="25_395" number="4" type="car" begin="27000" end="34200"/>
    <flow id="38_36" from="38_25" to="25_36" number="961" type="car" begin="27000" end="34200"/>
    <flow id="38_396" from="38_25" to="25_396" number="20" type="car" begin="27000" end="34200"/>
    <flow id="30_23" from="30_27" to="27_23" number="35" type="car" begin="27000" end="34200"/>
    <flow id="30_28" from="30_27" to="27_28" number="286" type="car" begin="27000" end="34200"/>
    <flow id="30_512" from="30_27" to="27_512" number="94" type="car" begin="27000" end="34200"/>
    <flow id="28_512" from="28_27" to="27_512" number="114" type="car" begin="27000" end="34200"/>
    <flow id="28_30" from="28_27" to="27_30" number="306" type="car" begin="27000" end="34200"/>
    <flow id="28_23" from="28_27" to="27_23" number="28" type="car" begin="27000" end="34200"/>
    <flow id="23_28" from="23_27" to="27_28" number="28" type="car" begin="27000" end="34200"/>
    <flow id="23_512" from="23_27" to="27_512" number="126" type="car" begin="27000" end="34200"/>
    <flow id="23_30" from="23_27" to="27_30" number="37" type="car" begin="27000" end="34200"/>
    <flow id="512_30" from="512_27" to="27_30" number="47" type="car" begin="27000" end="34200"/>
    <flow id="512_23" from="512_27" to="27_23" number="58" type="car" begin="27000" end="34200"/>
    <flow id="512_28" from="512_27" to="27_28" number="42" type="car" begin="27000" end="34200"/>
    <flow id="27_7287" from="27_28" to="28_7287" number="4" type="car" begin="27000" end="34200"/>
    <flow id="27_511" from="27_28" to="28_511" number="365" type="car" begin="27000" end="34200"/>
    <flow id="511_27" from="511_28" to="28_27" number="323" type="car" begin="27000" end="34200"/>
    <flow id="511_7287" from="511_28" to="28_7287" number="4" type="car" begin="27000" end="34200"/>
    <flow id="7287_27" from="7287_28" to="28_27" number="3" type="car" begin="27000" end="34200"/>
    <flow id="511_5204" from="511_29" to="29_5204" number="25" type="car" begin="27000" end="34200"/>
    <flow id="511_7004" from="511_29" to="29_7004" number="217" type="car" begin="27000" end="34200"/>
    <flow id="511_5205" from="511_29" to="29_5205" number="84" type="car" begin="27000" end="34200"/>
    <flow id="7004_5205" from="7004_29" to="29_5205" number="84" type="car" begin="27000" end="34200"/>
    <flow id="7004_511" from="7004_29" to="29_511" number="243" type="car" begin="27000" end="34200"/>
    <flow id="7004_5204" from="7004_29" to="29_5204" number="106" type="car" begin="27000" end="34200"/>
    <flow id="5204_7004" from="5204_29" to="29_7004" number="71" type="car" begin="27000" end="34200"/>
    <flow id="5204_5205" from="5204_29" to="29_5205" number="170" type="car" begin="27000" end="34200"/>
    <flow id="5204_511" from="5204_29" to="29_511" number="35" type="car" begin="27000" end="34200"/>
    <flow id="5205_511" from="5205_29" to="29_511" number="180" type="car" begin="27000" end="34200"/>
    <flow id="5205_5204" from="5205_29" to="29_5204" number="500" type="car" begin="27000" end="34200"/>
    <flow id="5205_7004" from="5205_29" to="29_7004" number="153" type="car" begin="27000" end="34200"/>
    <flow id="31_7215" from="31_30" to="30_7215" number="21" type="car" begin="27000" end="34200"/>
    <flow id="31_27" from="31_30" to="30_27" number="382" type="car" begin="27000" end="34200"/>
    <flow id="31_7216" from="31_30" to="30_7216" number="16" type="car" begin="27000" end="34200"/>
    <flow id="27_7216" from="27_30" to="30_7216" number="23" type="car" begin="27000" end="34200"/>
    <flow id="27_31" from="27_30" to="30_31" number="290" type="car" begin="27000" end="34200"/>
    <flow id="27_7215" from="27_30" to="30_7215" number="27" type="car" begin="27000" end="34200"/>
    <flow id="7215_27" from="7215_30" to="30_27" number="22" type="car" begin="27000" end="34200"/>
    <flow id="7215_7216" from="7215_30" to="30_7216" number="1" type="car" begin="27000" end="34200"/>
    <flow id="7215_31" from="7215_30" to="30_31" number="27" type="car" begin="27000" end="34200"/>
    <flow id="7216_31" from="7216_30" to="30_31" number="28" type="car" begin="27000" end="34200"/>
    <flow id="7216_27" from="7216_30" to="30_27" number="9" type="car" begin="27000" end="34200"/>
    <flow id="43_7214" from="43_31" to="31_7214" number="60" type="car" begin="27000" end="34200"/>
    <flow id="43_30" from="43_31" to="31_30" number="372" type="car" begin="27000" end="34200"/>
    <flow id="43_7213" from="43_31" to="31_7213" number="85" type="car" begin="27000" end="34200"/>
    <flow id="30_7213" from="30_31" to="31_7213" number="63" type="car" begin="27000" end="34200"/>
    <flow id="30_43" from="30_31" to="31_43" number="275" type="car" begin="27000" end="34200"/>
    <flow id="30_7214" from="30_31" to="31_7214" number="10" type="car" begin="27000" end="34200"/>
    <flow id="7214_30" from="7214_31" to="31_30" number="5" type="car" begin="27000" end="34200"/>
    <flow id="7214_7213" from="7214_31" to="31_7213" number="7" type="car" begin="27000" end="34200"/>
    <flow id="7214_43" from="7214_31" to="31_43" number="31" type="car" begin="27000" end="34200"/>
    <flow id="7213_43" from="7213_31" to="31_43" number="16" type="car" begin="27000" end="34200"/>
    <flow id="7213_7214" from="7213_31" to="31_7214" number="5" type="car" begin="27000" end="34200"/>
    <flow id="7213_30" from="7213_31" to="31_30" number="37" type="car" begin="27000" end="34200"/>
    <flow id="49_48" from="49_33" to="33_48" number="324" type="car" begin="27000" end="34200"/>
    <flow id="49_18" from="49_33" to="33_18" number="1184" type="car" begin="27000" end="34200"/>
    <flow id="49_494" from="49_33" to="33_494" number="33" type="car" begin="27000" end="34200"/>
    <flow id="18_494" from="18_33" to="33_494" number="80" type="car" begin="27000" end="34200"/>
    <flow id="18_49" from="18_33" to="33_49" number="1086" type="car" begin="27000" end="34200"/>
    <flow id="48_494" from="48_33" to="33_494" number="9" type="car" begin="27000" end="34200"/>
    <flow id="48_49" from="48_33" to="33_49" number="23" type="car" begin="27000" end="34200"/>
    <flow id="494_49" from="494_33" to="33_49" number="3" type="car" begin="27000" end="34200"/>
    <flow id="494_48" from="494_33" to="33_48" number="6" type="car" begin="27000" end="34200"/>
    <flow id="494_18" from="494_33" to="33_18" number="6" type="car" begin="27000" end="34200"/>
    <flow id="508_35" from="508_34" to="34_35" number="2" type="car" begin="27000" end="34200"/>
    <flow id="508_36" from="508_34" to="34_36" number="5" type="car" begin="27000" end="34200"/>
    <flow id="502_36" from="502_34" to="34_36" number="2" type="car" begin="27000" end="34200"/>
    <flow id="502_35" from="502_34" to="34_35" number="20" type="car" begin="27000" end="34200"/>
    <flow id="35_502" from="35_34" to="34_502" number="6" type="car" begin="27000" end="34200"/>
    <flow id="35_36" from="35_34" to="34_36" number="753" type="car" begin="27000" end="34200"/>
    <flow id="35_508" from="35_34" to="34_508" number="10" type="car" begin="27000" end="34200"/>
    <flow id="36_508" from="36_34" to="34_508" number="6" type="car" begin="27000" end="34200"/>
    <flow id="36_35" from="36_34" to="34_35" number="950" type="car" begin="27000" end="34200"/>
    <flow id="36_502" from="36_34" to="34_502" number="6" type="car" begin="27000" end="34200"/>
    <flow id="67_747" from="67_35" to="35_747" number="108" type="car" begin="27000" end="34200"/>
    <flow id="67_295" from="67_35" to="35_295" number="129" type="car" begin="27000" end="34200"/>
    <flow id="67_34" from="67_35" to="35_34" number="87" type="car" begin="27000" end="34200"/>
    <flow id="295_34" from="295_35" to="35_34" number="10" type="car" begin="27000" end="34200"/>
    <flow id="295_67" from="295_35" to="35_67" number="104" type="car" begin="27000" end="34200"/>
    <flow id="295_747" from="295_35" to="35_747" number="75" type="car" begin="27000" end="34200"/>
    <flow id="747_295" from="747_35" to="35_295" number="157" type="car" begin="27000" end="34200"/>
    <flow id="747_34" from="747_35" to="35_34" number="614" type="car" begin="27000" end="34200"/>
    <flow id="747_67" from="747_35" to="35_67" number="161" type="car" begin="27000" end="34200"/>
    <flow id="34_67" from="34_35" to="35_67" number="153" type="car" begin="27000" end="34200"/>
    <flow id="34_747" from="34_35" to="35_747" number="853" type="car" begin="27000" end="34200"/>
    <flow id="34_295" from="34_35" to="35_295" number="59" type="car" begin="27000" end="34200"/>
    <flow id="5232_34" from="5232_36" to="36_34" number="198" type="car" begin="27000" end="34200"/>
    <flow id="5232_24" from="5232_36" to="36_24" number="600" type="car" begin="27000" end="34200"/>
    <flow id="5232_25" from="5232_36" to="36_25" number="77" type="car" begin="27000" end="34200"/>
    <flow id="24_25" from="24_36" to="36_25" number="238" type="car" begin="27000" end="34200"/>
    <flow id="24_5232" from="24_36" to="36_5232" number="727" type="car" begin="27000" end="34200"/>