<?xml version="1.0" ?>
<connections>
    <connection from="357_2" to="2_3" fromLane="0" toLane="0" dir="r"/>
    <connection from="357_2" to="2_101" fromLane="0" toLane="0" dir="s"/>
    <connection from="357_2" to="2_356" fromLane="1" toLane="0" dir="l"/>
    <connection from="101_2" to="2_356" fromLane="0" toLane="0" dir="r"/>
    <connection from="101_2" to="2_357" fromLane="0" toLane="0" dir="s"/>
    <connection from="101_2" to="2_3" fromLane="1" toLane="2" dir="l"/>
    <connection from="356_2" to="2_357" fromLane="0" toLane="0" dir="r"/>
    <connection from="356_2" to="2_3" fromLane="0" toLane="0" dir="s"/>
    <connection from="356_2" to="2_101" fromLane="1" toLane="1" dir="l"/>
    <connection from="356_2" to="2_356" fromLane="1" toLane="0" dir="t"/>
    <connection from="3_2" to="2_101" fromLane="0" toLane="0" dir="r"/>
    <connection from="3_2" to="2_356" fromLane="1" toLane="0" dir="s"/>
    <connection from="3_2" to="2_357" fromLane="2" toLane="0" dir="l"/>
    <connection from="3_2" to="2_3" fromLane="2" toLane="2" dir="t"/>
    <connection from="225_3" to="3_352" fromLane="0" toLane="0" dir="r"/>
    <connection from="225_3" to="3_351" fromLane="0" toLane="0" dir="s"/>
    <connection from="225_3" to="3_351" fromLane="1" toLane="1" dir="s"/>
    <connection from="225_3" to="3_351" fromLane="2" toLane="2" dir="s"/>
    <connection from="225_3" to="3_2" fromLane="3" toLane="1" dir="l"/>
    <connection from="225_3" to="3_2" fromLane="4" toLane="2" dir="l"/>
    <connection from="351_3" to="3_2" fromLane="0" toLane="0" dir="r"/>
    <connection from="351_3" to="3_225" fromLane="0" toLane="0" dir="s"/>
    <connection from="351_3" to="3_225" fromLane="1" toLane="1" dir="s"/>
    <connection from="351_3" to="3_225" fromLane="2" toLane="2" dir="s"/>
    <connection from="351_3" to="3_352" fromLane="3" toLane="0" dir="l"/>
    <connection from="351_3" to="3_352" fromLane="4" toLane="1" dir="l"/>
    <connection from="2_3" to="3_225" fromLane="0" toLane="0" dir="r"/>
    <connection from="2_3" to="3_352" fromLane="0" toLane="0" dir="s"/>
    <connection from="2_3" to="3_352" fromLane="1" toLane="1" dir="s"/>
    <connection from="2_3" to="3_351" fromLane="2" toLane="2" dir="l"/>
    <connection from="2_3" to="3_2" fromLane="2" toLane="2" dir="t"/>
    <connection from="352_3" to="3_351" fromLane="0" toLane="0" dir="r"/>
    <connection from="352_3" to="3_2" fromLane="0" toLane="0" dir="s"/>
    <connection from="352_3" to="3_2" fromLane="1" toLane="1" dir="s"/>
    <connection from="352_3" to="3_225" fromLane="2" toLane="3" dir="l"/>
    <connection from="352_3" to="3_352" fromLane="2" toLane="1" dir="t"/>
    <connection from="411_4" to="4_377" fromLane="0" toLane="0" dir="r"/>
    <connection from="411_4" to="4_377" fromLane="1" toLane="1" dir="r"/>
    <connection from="411_4" to="4_378" fromLane="2" toLane="0" dir="s"/>
    <connection from="378_4" to="4_377" fromLane="0" toLane="1" dir="l"/>
    <connection from="377_4" to="4_378" fromLane="0" toLane="0" dir="r"/>
    <connection from="377_4" to="4_411" fromLane="0" toLane="0" dir="l"/>
    <connection from="503_5" to="5_313" fromLane="0" toLane="0" dir="r"/>
    <connection from="503_5" to="5_312" fromLane="1" toLane="0" dir="s"/>
    <connection from="503_5" to="5_312" fromLane="2" toLane="1" dir="s"/>
    <connection from="503_5" to="5_312" fromLane="3" toLane="2" dir="s"/>
    <connection from="503_5" to="5_284" fromLane="4" toLane="0" dir="l"/>
    <connection from="312_5" to="5_284" fromLane="0" toLane="0" dir="r"/>
    <connection from="312_5" to="5_503" fromLane="1" toLane="0" dir="s"/>
    <connection from="312_5" to="5_503" fromLane="2" toLane="1" dir="s"/>
    <connection from="312_5" to="5_503" fromLane="3" toLane="2" dir="s"/>
    <connection from="312_5" to="5_313" fromLane="4" toLane="1" dir="l"/>
    <connection from="284_5" to="5_503" fromLane="0" toLane="0" dir="r"/>
    <connection from="284_5" to="5_313" fromLane="0" toLane="0" dir="s"/>
    <connection from="284_5" to="5_313" fromLane="1" toLane="1" dir="s"/>
    <connection from="284_5" to="5_312" fromLane="2" toLane="2" dir="l"/>
    <connection from="284_5" to="5_284" fromLane="2" toLane="0" dir="t"/>
    <connection from="313_5" to="5_312" fromLane="0" toLane="0" dir="r"/>
    <connection from="313_5" to="5_284" fromLane="1" toLane="0" dir="s"/>
    <connection from="313_5" to="5_503" fromLane="2" toLane="4" dir="l"/>
    <connection from="313_5" to="5_503" fromLane="3" toLane="5" dir="l"/>
    <connection from="313_5" to="5_313" fromLane="3" toLane="1" dir="t"/>
    <connection from="7002_6" to="6_343" fromLane="0" toLane="0" dir="r"/>
    <connection from="7002_6" to="6_306" fromLane="1" toLane="0" dir="s"/>
    <connection from="7002_6" to="6_306" fromLane="2" toLane="1" dir="s"/>
    <connection from="7002_6" to="6_306" fromLane="3" toLane="2" dir="s"/>
    <connection from="7002_6" to="6_306" fromLane="4" toLane="3" dir="s"/>
    <connection from="7002_6" to="6_339" fromLane="4" toLane="0" dir="l"/>
    <connection from="306_6" to="6_339" fromLane="0" toLane="0" dir="r"/>
    <connection from="306_6" to="6_7002" fromLane="0" toLane="0" dir="s"/>
    <connection from="306_6" to="6_7002" fromLane="1" toLane="1" dir="s"/>
    <connection from="306_6" to="6_7002" fromLane="2" toLane="2" dir="s"/>
    <connection from="306_6" to="6_343" fromLane="3" toLane="0" dir="l"/>
    <connection from="306_6" to="6_343" fromLane="4" toLane="1" dir="l"/>
    <connection from="339_6" to="6_7002" fromLane="0" toLane="0" dir="r"/>
    <connection from="339_6" to="6_343" fromLane="1" toLane="0" dir="s"/>
    <connection from="339_6" to="6_343" fromLane="2" toLane="1" dir="s"/>
    <connection from="339_6" to="6_306" fromLane="3" toLane="4" dir="l"/>
    <connection from="339_6" to="6_339" fromLane="3" toLane="0" dir="t"/>
    <connection from="343_6" to="6_306" fromLane="0" toLane="0" dir="r"/>
    <connection from="343_6" to="6_7002" fromLane="0" toLane="2" dir="l"/>
    <connection from="343_6" to="6_343" fromLane="0" toLane="1" dir="t"/>
    <connection from="10_7" to="7_326" fromLane="0" toLane="0" dir="r"/>
    <connection from="10_7" to="7_225" fromLane="0" toLane="0" dir="s"/>
    <connection from="10_7" to="7_225" fromLane="1" toLane="1" dir="s"/>
    <connection from="10_7" to="7_225" fromLane="2" toLane="2" dir="s"/>
    <connection from="10_7" to="7_484" fromLane="3" toLane="0" dir="l"/>
    <connection from="225_7" to="7_484" fromLane="0" toLane="0" dir="r"/>
    <connection from="225_7" to="7_10" fromLane="0" toLane="0" dir="s"/>
    <connection from="225_7" to="7_10" fromLane="1" toLane="1" dir="s"/>
    <connection from="225_7" to="7_10" fromLane="2" toLane="2" dir="s"/>
    <connection from="225_7" to="7_326" fromLane="3" toLane="0" dir="l"/>
    <connection from="484_7" to="7_10" fromLane="0" toLane="0" dir="r"/>
    <connection from="484_7" to="7_326" fromLane="1" toLane="0" dir="s"/>
    <connection from="484_7" to="7_225" fromLane="2" toLane="3" dir="l"/>
    <connection from="484_7" to="7_484" fromLane="2" toLane="0" dir="t"/>
    <connection from="326_7" to="7_225" fromLane="0" toLane="0" dir="r"/>
    <connection from="326_7" to="7_484" fromLane="1" toLane="0" dir="s"/>
    <connection from="326_7" to="7_10" fromLane="2" toLane="4" dir="l"/>
    <connection from="326_7" to="7_326" fromLane="2" toLane="0" dir="t"/>
    <connection from="329_8" to="8_320" fromLane="0" toLane="0" dir="r"/>
    <connection from="329_8" to="8_314" fromLane="1" toLane="0" dir="s"/>
    <connection from="329_8" to="8_314" fromLane="2" toLane="1" dir="s"/>
    <connection from="329_8" to="8_507" fromLane="3" toLane="0" dir="l"/>
    <connection from="329_8" to="8_507" fromLane="4" toLane="1" dir="l"/>
    <connection from="314_8" to="8_507" fromLane="0" toLane="0" dir="r"/>
    <connection from="314_8" to="8_329" fromLane="1" toLane="0" dir="s"/>
    <connection from="314_8" to="8_329" fromLane="2" toLane="1" dir="s"/>
    <connection from="314_8" to="8_320" fromLane="3" toLane="1" dir="l"/>
    <connection from="314_8" to="8_320" fromLane="4" toLane="2" dir="l"/>
    <connection from="507_8" to="8_329" fromLane="0" toLane="0" dir="r"/>
    <connection from="507_8" to="8_320" fromLane="1" toLane="0" dir="s"/>
    <connection from="507_8" to="8_320" fromLane="2" toLane="1" dir="s"/>
    <connection from="507_8" to="8_314" fromLane="3" toLane="0" dir="l"/>
    <connection from="507_8" to="8_314" fromLane="4" toLane="1" dir="l"/>
    <connection from="507_8" to="8_507" fromLane="4" toLane="1" dir="t"/>
    <connection from="320_8" to="8_314" fromLane="0" toLane="0" dir="r"/>
    <connection from="320_8" to="8_507" fromLane="0" toLane="0" dir="s"/>
    <connection from="320_8" to="8_507" fromLane="1" toLane="1" dir="s"/>
    <connection from="320_8" to="8_329" fromLane="2" toLane="0" dir="l"/>
    <connection from="320_8" to="8_329" fromLane="3" toLane="1" dir="l"/>
    <connection from="320_8" to="8_320" fromLane="3" toLane="2" dir="t"/>
    <connection from="349_9" to="9_10" fromLane="0" toLane="0" dir="r"/>
    <connection from="349_9" to="9_350" fromLane="0" toLane="0" dir="s"/>
    <connection from="349_9" to="9_350" fromLane="1" toLane="1" dir="s"/>
    <connection from="349_9" to="9_319" fromLane="2" toLane="1" dir="l"/>
    <connection from="350_9" to="9_319" fromLane="0" toLane="0" dir="r"/>
    <connection from="350_9" to="9_349" fromLane="1" toLane="0" dir="s"/>
    <connection from="350_9" to="9_10" fromLane="2" toLane="4" dir="l"/>
    <connection from="319_9" to="9_349" fromLane="0" toLane="0" dir="r"/>
    <connection from="319_9" to="9_10" fromLane="0" toLane="0" dir="s"/>
    <connection from="319_9" to="9_10" fromLane="1" toLane="1" dir="s"/>
    <connection from="319_9" to="9_350" fromLane="2" toLane="0" dir="l"/>
    <connection from="319_9" to="9_350" fromLane="3" toLane="1" dir="l"/>
    <connection from="319_9" to="9_319" fromLane="3" toLane="1" dir="t"/>
    <connection from="10_9" to="9_350" fromLane="0" toLane="0" dir="r"/>
    <connection from="10_9" to="9_319" fromLane="0" toLane="0" dir="s"/>
    <connection from="10_9" to="9_319" fromLane="1" toLane="1" dir="s"/>
    <connection from="10_9" to="9_349" fromLane="2" toLane="0" dir="l"/>
    <connection from="10_9" to="9_10" fromLane="2" toLane="4" dir="t"/>
    <connection from="17_10" to="10_11" fromLane="0" toLane="0" dir="r"/>
    <connection from="17_10" to="10_7" fromLane="0" toLane="0" dir="s"/>
    <connection from="17_10" to="10_7" fromLane="1" toLane="1" dir="s"/>
    <connection from="17_10" to="10_7" fromLane="2" toLane="2" dir="s"/>
    <connection from="17_10" to="10_9" fromLane="3" toLane="1" dir="l"/>
    <connection from="17_10" to="10_9" fromLane="4" toLane="2" dir="l"/>
    <connection from="7_10" to="10_9" fromLane="0" toLane="0" dir="r"/>
    <connection from="7_10" to="10_17" fromLane="0" toLane="0" dir="s"/>
    <connection from="7_10" to="10_17" fromLane="1" toLane="1" dir="s"/>
    <connection from="7_10" to="10_17" fromLane="2" toLane="2" dir="s"/>
    <connection from="7_10" to="10_11" fromLane="3" toLane="1" dir="l"/>
    <connection from="7_10" to="10_11" fromLane="4" toLane="2" dir="l"/>
    <connection from="9_10" to="10_17" fromLane="0" toLane="0" dir="r"/>
    <connection from="9_10" to="10_11" fromLane="1" toLane="0" dir="s"/>
    <connection from="9_10" to="10_11" fromLane="2" toLane="1" dir="s"/>
    <connection from="9_10" to="10_7" fromLane="3" toLane="2" dir="l"/>
    <connection from="9_10" to="10_7" fromLane="4" toLane="3" dir="l"/>
    <connection from="9_10" to="10_9" fromLane="4" toLane="2" dir="t"/>
    <connection from="11_10" to="10_7" fromLane="0" toLane="0" dir="r"/>
    <connection from="11_10" to="10_9" fromLane="1" toLane="0" dir="s"/>
    <connection from="11_10" to="10_9" fromLane="2" toLane="1" dir="s"/>
    <connection from="11_10" to="10_17" fromLane="3" toLane="4" dir="l"/>
    <connection from="11_10" to="10_17" fromLane="4" toLane="5" dir="l"/>
    <connection from="11_10" to="10_11" fromLane="4" toLane="2" dir="t"/>
    <connection from="173_11" to="11_12" fromLane="0" toLane="0" dir="r"/>
    <connection from="173_11" to="11_327" fromLane="0" toLane="0" dir="s"/>
    <connection from="173_11" to="11_10" fromLane="1" toLane="4" dir="l"/>
    <connection from="327_11" to="11_10" fromLane="0" toLane="0" dir="r"/>
    <connection from="327_11" to="11_173" fromLane="0" toLane="0" dir="s"/>
    <connection from="327_11" to="11_12" fromLane="1" toLane="2" dir="l"/>
    <connection from="10_11" to="11_173" fromLane="0" toLane="0" dir="r"/>
    <connection from="10_11" to="11_12" fromLane="0" toLane="0" dir="s"/>
    <connection from="10_11" to="11_12" fromLane="1" toLane="1" dir="s"/>
    <connection from="10_11" to="11_327" fromLane="2" toLane="0" dir="l"/>
    <connection from="10_11" to="11_10" fromLane="2" toLane="4" dir="t"/>
    <connection from="12_11" to="11_327" fromLane="0" toLane="0" dir="r"/>
    <connection from="12_11" to="11_10" fromLane="0" toLane="0" dir="s"/>
    <connection from="12_11" to="11_10" fromLane="1" toLane="1" dir="s"/>
    <connection from="12_11" to="11_173" fromLane="2" toLane="0" dir="l"/>
    <connection from="12_11" to="11_12" fromLane="2" toLane="2" dir="t"/>
    <connection from="19_12" to="12_328" fromLane="0" toLane="0" dir="s"/>
    <connection from="19_12" to="12_328" fromLane="1" toLane="1" dir="s"/>
    <connection from="19_12" to="12_328" fromLane="2" toLane="2" dir="s"/>
    <connection from="19_12" to="12_11" fromLane="3" toLane="2" dir="l"/>
    <connection from="328_12" to="12_11" fromLane="0" toLane="0" dir="r"/>
    <connection from="328_12" to="12_19" fromLane="0" toLane="0" dir="s"/>
    <connection from="328_12" to="12_19" fromLane="1" toLane="1" dir="s"/>
    <connection from="328_12" to="12_19" fromLane="2" toLane="2" dir="s"/>
    <connection from="11_12" to="12_19" fromLane="0" toLane="0" dir="r"/>
    <connection from="11_12" to="12_328" fromLane="1" toLane="1" dir="l"/>
    <connection from="11_12" to="12_328" fromLane="2" toLane="2" dir="l"/>
    <connection from="11_12" to="12_11" fromLane="2" toLane="2" dir="t"/>
    <connection from="24_13" to="13_486" fromLane="0" toLane="0" dir="r"/>
    <connection from="24_13" to="13_7002" fromLane="1" toLane="0" dir="s"/>
    <connection from="24_13" to="13_7002" fromLane="2" toLane="1" dir="s"/>
    <connection from="24_13" to="13_7002" fromLane="3" toLane="2" dir="s"/>
    <connection from="24_13" to="13_7001" fromLane="4" toLane="0" dir="l"/>
    <connection from="24_13" to="13_7001" fromLane="5" toLane="1" dir="l"/>
    <connection from="7002_13" to="13_7001" fromLane="0" toLane="0" dir="r"/>
    <connection from="7002_13" to="13_24" fromLane="1" toLane="0" dir="s"/>
    <connection from="7002_13" to="13_24" fromLane="2" toLane="1" dir="s"/>
    <connection from="7002_13" to="13_24" fromLane="3" toLane="2" dir="s"/>
    <connection from="7002_13" to="13_486" fromLane="4" toLane="0" dir="l"/>
    <connection from="7002_13" to="13_486" fromLane="5" toLane="1" dir="l"/>
    <connection from="7001_13" to="13_24" fromLane="0" toLane="0" dir="r"/>
    <connection from="7001_13" to="13_486" fromLane="1" toLane="0" dir="s"/>
    <connection from="7001_13" to="13_486" fromLane="2" toLane="1" dir="s"/>
    <connection from="7001_13" to="13_7002" fromLane="3" toLane="1" dir="l"/>
    <connection from="7001_13" to="13_7002" fromLane="4" toLane="2" dir="l"/>
    <connection from="7001_13" to="13_7001" fromLane="4" toLane="1" dir="t"/>
    <connection from="486_13" to="13_7002" fromLane="0" toLane="0" dir="r"/>
    <connection from="486_13" to="13_7001" fromLane="1" toLane="0" dir="s"/>
    <connection from="486_13" to="13_7001" fromLane="2" toLane="1" dir="s"/>
    <connection from="486_13" to="13_24" fromLane="3" toLane="2" dir="l"/>
    <connection from="486_13" to="13_24" fromLane="4" toLane="3" dir="l"/>
    <connection from="486_13" to="13_486" fromLane="4" toLane="1" dir="t"/>
    <connection from="5230_14" to="14_247" fromLane="0" toLane="0" dir="r"/>
    <connection from="5230_14" to="14_7003" fromLane="0" toLane="0" dir="s"/>
    <connection from="5230_14" to="14_486" fromLane="1" toLane="1" dir="l"/>
    <connection from="7003_14" to="14_486" fromLane="0" toLane="0" dir="r"/>
    <connection from="7003_14" to="14_5230" fromLane="1" toLane="0" dir="s"/>
    <connection from="7003_14" to="14_247" fromLane="2" toLane="2" dir="l"/>
    <connection from="486_14" to="14_5230" fromLane="0" toLane="0" dir="r"/>
    <connection from="486_14" to="14_247" fromLane="1" toLane="0" dir="s"/>
    <connection from="486_14" to="14_247" fromLane="2" toLane="1" dir="s"/>
    <connection from="486_14" to="14_7003" fromLane="3" toLane="0" dir="l"/>
    <connection from="486_14" to="14_486" fromLane="3" toLane="1" dir="t"/>
    <connection from="247_14" to="14_7003" fromLane="0" toLane="0" dir="r"/>
    <connection from="247_14" to="14_486" fromLane="0" toLane="0" dir="s"/>
    <connection from="247_14" to="14_486" fromLane="1" toLane="1" dir="s"/>
    <connection from="247_14" to="14_5230" fromLane="2" toLane="0" dir="l"/>
    <connection from="247_14" to="14_247" fromLane="2" toLane="2" dir="t"/>
    <connection from="509_16" to="16_5204" fromLane="0" toLane="0" dir="r"/>
    <connection from="509_16" to="16_143" fromLane="1" toLane="0" dir="s"/>
    <connection from="509_16" to="16_143" fromLane="2" toLane="1" dir="s"/>
    <connection from="509_16" to="16_7203" fromLane="3" toLane="0" dir="l"/>
    <connection from="143_16" to="16_7203" fromLane="0" toLane="0" dir="r"/>
    <connection from="143_16" to="16_509" fromLane="0" toLane="0" dir="s"/>
    <connection from="143_16" to="16_5204" fromLane="1" toLane="0" dir="l"/>
    <connection from="143_16" to="16_5204" fromLane="2" toLane="1" dir="l"/>
    <connection from="7203_16" to="16_509" fromLane="0" toLane="0" dir="r"/>
    <connection from="7203_16" to="16_5204" fromLane="0" toLane="0" dir="s"/>
    <connection from="7203_16" to="16_143" fromLane="0" toLane="1" dir="l"/>
    <connection from="7203_16" to="16_7203" fromLane="0" toLane="0" dir="t"/>
    <connection from="5204_16" to="16_143" fromLane="0" toLane="0" dir="r"/>
    <connection from="5204_16" to="16_143" fromLane="1" toLane="1" dir="r"/>
    <connection from="5204_16" to="16_7203" fromLane="2" toLane="0" dir="s"/>
    <connection from="5204_16" to="16_509" fromLane="2" toLane="1" dir="l"/>
    <connection from="5204_16" to="16_5204" fromLane="2" toLane="1" dir="t"/>
    <connection from="224_17" to="17_496" fromLane="0" toLane="0" dir="r"/>
    <connection from="224_17" to="17_10" fromLane="1" toLane="0" dir="s"/>
    <connection from="224_17" to="17_10" fromLane="2" toLane="1" dir="s"/>
    <connection from="224_17" to="17_10" fromLane="3" toLane="2" dir="s"/>
    <connection from="224_17" to="17_317" fromLane="4" toLane="0" dir="l"/>
    <connection from="224_17" to="17_317" fromLane="5" toLane="1" dir="l"/>
    <connection from="10_17" to="17_317" fromLane="0" toLane="0" dir="r"/>
    <connection from="10_17" to="17_224" fromLane="1" toLane="0" dir="s"/>
    <connection from="10_17" to="17_224" fromLane="2" toLane="1" dir="s"/>
    <connection from="10_17" to="17_224" fromLane="3" toLane="2" dir="s"/>
    <connection from="10_17" to="17_496" fromLane="4" toLane="0" dir="l"/>
    <connection from="10_17" to="17_496" fromLane="5" toLane="1" dir="l"/>
    <connection from="317_17" to="17_224" fromLane="0" toLane="0" dir="r"/>
    <connection from="317_17" to="17_496" fromLane="1" toLane="0" dir="s"/>
    <connection from="317_17" to="17_10" fromLane="2" toLane="3" dir="l"/>
    <connection from="317_17" to="17_10" fromLane="3" toLane="4" dir="l"/>
    <connection from="317_17" to="17_317" fromLane="3" toLane="1" dir="t"/>
    <connection from="496_17" to="17_10" fromLane="0" toLane="0" dir="r"/>
    <connection from="496_17" to="17_224" fromLane="1" toLane="3" dir="l"/>
    <connection from="496_17" to="17_224" fromLane="2" toLane="4" dir="l"/>
    <connection from="496_17" to="17_496" fromLane="2" toLane="1" dir="t"/>
    <connection from="33_18" to="18_5213" fromLane="0" toLane="0" dir="r"/>
    <connection from="33_18" to="18_224" fromLane="0" toLane="0" dir="s"/>
    <connection from="33_18" to="18_224" fromLane="1" toLane="1" dir="s"/>
    <connection from="33_18" to="18_224" fromLane="2" toLane="2" dir="s"/>
    <connection from="33_18" to="18_21" fromLane="3" toLane="4" dir="l"/>
    <connection from="224_18" to="18_21" fromLane="0" toLane="0" dir="r"/>
    <connection from="224_18" to="18_33" fromLane="1" toLane="0" dir="s"/>
    <connection from="224_18" to="18_33" fromLane="2" toLane="1" dir="s"/>
    <connection from="224_18" to="18_33" fromLane="3" toLane="2" dir="s"/>
    <connection from="224_18" to="18_5213" fromLane="4" toLane="1" dir="l"/>
    <connection from="21_18" to="18_33" fromLane="0" toLane="0" dir="r"/>
    <connection from="21_18" to="18_5213" fromLane="1" toLane="0" dir="s"/>
    <connection from="21_18" to="18_5213" fromLane="2" toLane="1" dir="s"/>
    <connection from="21_18" to="18_224" fromLane="3" toLane="2" dir="l"/>
    <connection from="21_18" to="18_224" fromLane="4" toLane="3" dir="l"/>
    <connection from="21_18" to="18_21" fromLane="4" toLane="4" dir="t"/>
    <connection from="5213_18" to="18_224" fromLane="0" toLane="0" dir="r"/>
    <connection from="5213_18" to="18_21" fromLane="1" toLane="0" dir="s"/>
    <connection from="5213_18" to="18_21" fromLane="2" toLane="1" dir="s"/>
    <connection from="5213_18" to="18_33" fromLane="3" toLane="2" dir="l"/>
    <connection from="5213_18" to="18_33" fromLane="4" toLane="3" dir="l"/>
    <connection from="5213_18" to="18_5213" fromLane="4" toLane="1" dir="t"/>
    <connection from="42_19" to="19_12" fromLane="0" toLane="0" dir="s"/>
    <connection from="42_19" to="19_12" fromLane="1" toLane="1" dir="s"/>
    <connection from="42_19" to="19_393" fromLane="2" toLane="0" dir="l"/>
    <connection from="12_19" to="19_393" fromLane="0" toLane="0" dir="r"/>
    <connection from="12_19" to="19_42" fromLane="1" toLane="0" dir="s"/>
    <connection from="12_19" to="19_42" fromLane="2" toLane="1" dir="s"/>
    <connection from="12_19" to="19_42" fromLane="3" toLane="2" dir="s"/>
    <connection from="393_19" to="19_42" fromLane="0" toLane="0" dir="r"/>
    <connection from="393_19" to="19_42" fromLane="1" toLane="1" dir="r"/>
    <connection from="393_19" to="19_12" fromLane="2" toLane="2" dir="l"/>
    <connection from="393_19" to="19_12" fromLane="3" toLane="3" dir="l"/>
    <connection from="393_19" to="19_393" fromLane="3" toLane="0" dir="t"/>
    <connection from="51_20" to="20_37" fromLane="0" toLane="0" dir="r"/>
    <connection from="51_20" to="20_42" fromLane="0" toLane="0" dir="s"/>
    <connection from="51_20" to="20_42" fromLane="1" toLane="1" dir="s"/>
    <connection from="51_20" to="20_249" fromLane="2" toLane="2" dir="l"/>
    <connection from="42_20" to="20_249" fromLane="0" toLane="0" dir="r"/>
    <connection from="42_20" to="20_51" fromLane="0" toLane="0" dir="s"/>
    <connection from="42_20" to="20_51" fromLane="1" toLane="1" dir="s"/>
    <connection from="42_20" to="20_51" fromLane="2" toLane="2" dir="s"/>
    <connection from="42_20" to="20_37" fromLane="3" toLane="1" dir="l"/>
    <connection from="42_20" to="20_37" fromLane="4" toLane="2" dir="l"/>
    <connection from="249_20" to="20_51" fromLane="0" toLane="0" dir="r"/>
    <connection from="249_20" to="20_37" fromLane="1" toLane="0" dir="s"/>
    <connection from="249_20" to="20_37" fromLane="2" toLane="1" dir="s"/>
    <connection from="249_20" to="20_42" fromLane="3" toLane="1" dir="l"/>
    <connection from="249_20" to="20_42" fromLane="4" toLane="2" dir="l"/>
    <connection from="249_20" to="20_249" fromLane="4" toLane="2" dir="t"/>
    <connection from="37_20" to="20_42" fromLane="0" toLane="0" dir="r"/>
    <connection from="37_20" to="20_249" fromLane="1" toLane="0" dir="s"/>
    <connection from="37_20" to="20_249" fromLane="2" toLane="1" dir="s"/>
    <connection from="37_20" to="20_51" fromLane="3" toLane="3" dir="l"/>
    <connection from="37_20" to="20_51" fromLane="4" toLane="4" dir="l"/>
    <connection from="37_20" to="20_37" fromLane="4" toLane="2" dir="t"/>
    <connection from="48_21" to="21_18" fromLane="0" toLane="0" dir="r"/>
    <connection from="48_21" to="21_7005" fromLane="0" toLane="0" dir="s"/>
    <connection from="48_21" to="21_7005" fromLane="1" toLane="1" dir="s"/>
    <connection from="48_21" to="21_59" fromLane="2" toLane="3" dir="l"/>
    <connection from="7005_21" to="21_59" fromLane="0" toLane="0" dir="r"/>
    <connection from="7005_21" to="21_48" fromLane="0" toLane="0" dir="s"/>
    <connection from="7005_21" to="21_48" fromLane="1" toLane="1" dir="s"/>
    <connection from="7005_21" to="21_18" fromLane="2" toLane="3" dir="l"/>
    <connection from="7005_21" to="21_18" fromLane="3" toLane="4" dir="l"/>
    <connection from="59_21" to="21_48" fromLane="0" toLane="0" dir="r"/>
    <connection from="59_21" to="21_18" fromLane="1" toLane="0" dir="s"/>
    <connection from="59_21" to="21_18" fromLane="2" toLane="1" dir="s"/>
    <connection from="59_21" to="21_7005" fromLane="3" toLane="0" dir="l"/>
    <connection from="59_21" to="21_7005" fromLane="4" toLane="1" dir="l"/>
    <connection from="59_21" to="21_59" fromLane="4" toLane="3" dir="t"/>
    <connection from="18_21" to="21_7005" fromLane="0" toLane="0" dir="r"/>
    <connection from="18_21" to="21_59" fromLane="1" toLane="0" dir="s"/>
    <connection from="18_21" to="21_59" fromLane="2" toLane="1" dir="s"/>
    <connection from="18_21" to="21_48" fromLane="3" toLane="0" dir="l"/>
    <connection from="18_21" to="21_48" fromLane="4" toLane="1" dir="l"/>
    <connection from="18_21" to="21_18" fromLane="4" toLane="4" dir="t"/>
    <connection from="55_22" to="22_322" fromLane="0" toLane="0" dir="r"/>
    <connection from="55_22" to="22_5217" fromLane="0" toLane="1" dir="l"/>
    <connection from="7009_22" to="22_5217" fromLane="0" toLane="0" dir="r"/>
    <connection from="7009_22" to="22_55" fromLane="1" toLane="0" dir="s"/>
    <connection from="7009_22" to="22_55" fromLane="2" toLane="1" dir="s"/>
    <connection from="7009_22" to="22_322" fromLane="3" toLane="2" dir="l"/>
    <connection from="5217_22" to="22_55" fromLane="0" toLane="0" dir="r"/>
    <connection from="5217_22" to="22_322" fromLane="0" toLane="0" dir="s"/>
    <connection from="5217_22" to="22_322" fromLane="1" toLane="1" dir="s"/>
    <connection from="5217_22" to="22_322" fromLane="2" toLane="2" dir="s"/>
    <connection from="5217_22" to="22_7009" fromLane="2" toLane="0" dir="l"/>
    <connection from="5217_22" to="22_5217" fromLane="2" toLane="1" dir="t"/>
    <connection from="322_22" to="22_7009" fromLane="0" toLane="0" dir="r"/>
    <connection from="322_22" to="22_5217" fromLane="0" toLane="0" dir="s"/>
    <connection from="322_22" to="22_5217" fromLane="1" toLane="1" dir="s"/>
    <connection from="322_22" to="22_55" fromLane="2" toLane="3" dir="l"/>
    <connection from="322_22" to="22_322" fromLane="2" toLane="2" dir="t"/>
    <connection from="5206_23" to="23_27" fromLane="0" toLane="0" dir="r"/>
    <connection from="5206_23" to="23_509" fromLane="0" toLane="0" dir="s"/>
    <connection from="5206_23" to="23_7205" fromLane="1" toLane="0" dir="l"/>
    <connection from="509_23" to="23_7205" fromLane="0" toLane="0" dir="r"/>
    <connection from="509_23" to="23_5206" fromLane="1" toLane="0" dir="s"/>
    <connection from="509_23" to="23_27" fromLane="2" toLane="2" dir="l"/>
    <connection from="7205_23" to="23_5206" fromLane="0" toLane="0" dir="r"/>
    <connection from="7205_23" to="23_27" fromLane="0" toLane="0" dir="s"/>
    <connection from="7205_23" to="23_509" fromLane="1" toLane="2" dir="l"/>
    <connection from="7205_23" to="23_7205" fromLane="1" toLane="0" dir="t"/>
    <connection from="27_23" to="23_509" fromLane="0" toLane="0" dir="r"/>
    <connection from="27_23" to="23_7205" fromLane="1" toLane="0" dir="s"/>
    <connection from="27_23" to="23_5206" fromLane="2" toLane="0" dir="l"/>
    <connection from="27_23" to="23_27" fromLane="2" toLane="2" dir="t"/>
    <connection from="36_24" to="24_7201" fromLane="0" toLane="0" dir="r"/>
    <connection from="36_24" to="24_13" fromLane="0" toLane="0" dir="s"/>
    <connection from="36_24" to="24_13" fromLane="1" toLane="1" dir="s"/>
    <connection from="36_24" to="24_13" fromLane="2" toLane="2" dir="s"/>
    <connection from="36_24" to="24_7061" fromLane="3" toLane="0" dir="l"/>
    <connection from="13_24" to="24_7061" fromLane="0" toLane="0" dir="r"/>
    <connection from="13_24" to="24_36" fromLane="0" toLane="0" dir="s"/>
    <connection from="13_24" to="24_36" fromLane="1" toLane="1" dir="s"/>
    <connection from="13_24" to="24_36" fromLane="2" toLane="2" dir="s"/>
    <connection from="13_24" to="24_7201" fromLane="3" toLane="0" dir="l"/>
    <connection from="7061_24" to="24_36" fromLane="0" toLane="0" dir="r"/>
    <connection from="7061_24" to="24_7201" fromLane="0" toLane="0" dir="s"/>
    <connection from="7061_24" to="24_13" fromLane="1" toLane="5" dir="l"/>
    <connection from="7061_24" to="24_7061" fromLane="1" toLane="0" dir="t"/>
    <connection from="7201_24" to="24_13" fromLane="0" toLane="0" dir="r"/>
    <connection from="7201_24" to="24_7061" fromLane="0" toLane="0" dir="s"/>
    <connection from="7201_24" to="24_36" fromLane="1" toLane="5" dir="l"/>
    <connection from="7201_24" to="24_7201" fromLane="1" toLane="0" dir="t"/>
    <connection from="395_25" to="25_38" fromLane="0" toLane="0" dir="r"/>
    <connection from="395_25" to="25_396" fromLane="0" toLane="0" dir="s"/>
    <connection from="395_25" to="25_36" fromLane="1" toLane="2" dir="l"/>
    <connection from="396_25" to="25_36" fromLane="0" toLane="0" dir="r"/>