<?xml version="1.0" encoding="UTF-8"?>

<!-- generated on 2025-02-03 14:26:44.583015 by randomTrips.py v1_21_0+0000-d7b3b481c43
<configuration>
    <net-file value="c:/Users/xh8/ornl_workspace/github_workspace/utdf2gmns/datasets/data_Tempe_network/utdf_to_sumo/utdf_to_sumo.net.xml"/>
    <route-file value="c:/Users/xh8/ornl_workspace/github_workspace/utdf2gmns/datasets/data_Tempe_network/utdf_to_sumo/utdf_to_sumo.rou.xml"/>
</configuration>
-->

<!-- generated on 2025-02-03 14:26:43 by Eclipse SUMO duarouter Version 1.21.0
<duarouterConfiguration xmlns:xsi="http://www.w3.org/2001/XMLSchema-instance" xsi:noNamespaceSchemaLocation="http://sumo.dlr.de/xsd/duarouterConfiguration.xsd">

    <input>
        <net-file value="c:/Users/xh8/ornl_workspace/github_workspace/utdf2gmns/datasets/data_Tempe_network/utdf_to_sumo/utdf_to_sumo.net.xml"/>
        <route-files value="trips.trips.xml"/>
    </input>

    <output>
        <output-file value="c:/Users/xh8/ornl_workspace/github_workspace/utdf2gmns/datasets/data_Tempe_network/utdf_to_sumo/utdf_to_sumo.rou.xml"/>
        <alternatives-output value="NUL"/>
    </output>

    <time>
        <begin value="0"/>
        <end value="3600"/>
    </time>

    <report>
        <no-warnings value="true"/>
        <ignore-errors value="true"/>
        <no-step-log value="true"/>
    </report>

</duarouterConfiguration>
-->

<routes xmlns:xsi="http://www.w3.org/2001/XMLSchema-instance" xsi:noNamespaceSchemaLocation="http://sumo.dlr.de/xsd/routes_file.xsd">
    <vehicle id="0" depart="0.00">
        <route edges="51_20 20_51 51_66 66_525 525_99 99_97 97_96 96_94 94_549 549_95 95_92 92_548 548_91 91_89 89_88 88_87 87_5287 5287_86 86_85 85_80 80_90 90_83 83_456 456_107 107_108 108_473"/>
    </vehicle>
    <vehicle id="1" depart="1.00">
        <route edges="241_219 219_216 216_215 215_198 198_195 195_410 410_186 186_184 184_183 183_181"/>
    </vehicle>
    <vehicle id="2" depart="2.00">
        <route edges="5280_5215 5215_8055 8055_55 55_5214 5214_5272 5272_53 53_51 51_20 20_249 249_5213 5213_18 18_21 21_59 59_5208 5208_58 58_56 56_5205 5205_29 29_5204 5204_16 16_143 143_5203 5203_7202 7202_5203 5203_143"/>
    </vehicle>
    <vehicle id="3" depart="3.00">
        <route edges="7243_82 82_93 93_94 94_106 106_113 113_127 127_5263"/>
    </vehicle>
    <vehicle id="4" depart="4.00">
        <route edges="357_2 2_3 3_225 225_7 7_10 10_17"/>
    </vehicle>
    <vehicle id="5" depart="5.00">
        <route edges="20_42 42_20 20_51 51_66 66_525 525_99 99_114 114_115 115_116 116_130 130_5261 5261_144 144_344 344_5262 5262_168 168_293 293_290 290_175 175_177 177_409 409_186 186_410 410_195 195_198 198_215 215_216 216_219 219_220 220_379 379_373"/>
    </vehicle>
    <vehicle id="6" depart="6.00">
        <route edges="112_111 111_124 124_125 125_127 127_5263 5263_142 142_342 342_5264 5264_147 147_150 150_165 165_166 166_168 168_170 170_415 415_172 172_223"/>
    </vehicle>
    <vehicle id="7" depart="7.00">
        <route edges="5206_5207 5207_41 41_40 40_41"/>
    </vehicle>
    <vehicle id="8" depart="8.00">
        <route edges="210_209 209_210 210_477 477_479 479_197 197_193 193_183 183_174 174_149 149_421 421_165 165_150 150_147 147_5264 5264_342 342_142 142_5263 5263_127 127_113 113_106 106_94 94_93 93_82 82_76 76_64 64_63 63_517 517_49 49_516 516_47 47_46 46_45 45_7211"/>
    </vehicle>
    <vehicle id="9" depart="9.00">
        <route edges="64_76 76_82 82_93 93_94 94_96 96_97 97_99 99_102 102_7299"/>
    </vehicle>
    <vehicle id="10" depart="10.00">
        <route edges="63_64 64_76 76_5226 5226_521 521_520"/>
    </vehicle>
    <vehicle id="11" depart="11.00">
        <route edges="294_252 252_157 157_156 156_250 250_355 355_155 155_154 154_153"/>
    </vehicle>
    <vehicle id="12" depart="12.00">
        <route edges="81_403 403_202 202_402 402_401 401_203 203_204 204_205 205_206 206_208 208_232 232_208"/>
    </vehicle>
    <vehicle id="13" depart="13.00">
        <route edges="142_342 342_142 142_5263 5263_127 127_128 128_129 129_126 126_130 130_116"/>
    </vehicle>
    <vehicle id="14" depart="14.00">
        <route edges="7047_341 341_141 141_5268 5268_139 139_124 124_111 111_117 117_91 91_71 71_5281 5281_201 201_5270 5270_60 60_43 43_41 41_40 40_39 39_38 38_5230 5230_14 14_486 486_13"/>
    </vehicle>
    <vehicle id="15" depart="15.00">
        <route edges="64_520 520_64 64_76 76_82 82_93 93_94 94_549 549_95 95_92 92_548 548_91 91_89 89_88 88_87 87_5287 5287_86 86_104 104_109 109_105 105_5242 5242_7055"/>
    </vehicle>
    <vehicle id="16" depart="16.00">
        <route edges="442_54 54_75 75_52 52_74 74_5227 5227_73 73_134 134_5293 5293_71 71_91 91_548"/>
    </vehicle>
    <vehicle id="17" depart="17.00">
        <route edges="322_22 22_55 55_5279 5279_532 532_5286 5286_5277 5277_103 103_5291 5291_283 283_5283 5283_135 135_7027 7027_98 98_100 100_416 416_172 172_416 416_100"/>
    </vehicle>
    <vehicle id="18" depart="18.00">
        <route edges="7010_322 322_22 22_5217 5217_61 61_37 37_20 20_249 249_5213 5213_18 18_33 33_49 49_517"/>
    </vehicle>
    <vehicle id="19" depart="19.00">
        <route edges="70_5238 5238_88 88_89 89_91 91_71 71_5281 5281_201 201_5270 5270_60 60_43 43_41"/>
    </vehicle>
    <vehicle id="20" depart="20.00">
        <route edges="525_524 524_525 525_99 99_114 114_7259"/>
    </vehicle>
    <vehicle id="21" depart="21.00">
        <route edges="215_213 213_210 210_477"/>
    </vehicle>
    <vehicle id="22" depart="22.00">
        <route edges="135_7027 7027_98 98_100 100_416 416_172 172_223 223_432 432_370 370_280 280_411 411_191 191_188 188_186"/>
    </vehicle>
    <vehicle id="23" depart="23.00">
        <route edges="148_244 244_240 240_236 236_232 232_208 208_196"/>
    </vehicle>
    <vehicle id="24" depart="24.00">
        <route edges="518_178 178_180 180_181 181_183 183_174 174_149 149_421 421_165 165_150 150_147 147_5264 5264_342 342_142 142_5263 5263_127 127_113 113_106 106_94 94_93 93_82 82_76 76_64 64_63 63_517 517_49 49_33 33_18 18_5213 5213_249 249_20"/>
    </vehicle>
    <vehicle id="25" depart="25.00">
        <route edges="317_17 17_224 224_18 18_5213 5213_249 249_20 20_51 51_66 66_525 525_99 99_114 114_115 115_116 116_130 130_5261 5261_144 144_344 344_5262 5262_168 168_293 293_290 290_175 175_177 177_218"/>
    </vehicle>
    <vehicle id="26" depart="26.00">
        <route edges="236_423 423_248 248_423 423_236 236_222 222_210 210_477 477_479 479_197 197_193 193_183 183_174 174_149 149_421 421_165 165_150 150_147 147_5264 5264_342 342_142 142_5263 5263_127 127_113 113_106 106_94 94_96 96_97 97_99 99_102 102_103 103_5277 5277_5286 5286_532 532_5279 5279_55 55_8055 8055_5215"/>
    </vehicle>
    <vehicle id="27" depart="27.00">
        <route edges="5205_56 56_5205 5205_29 29_511 511_28 28_27 27_30 30_31 31_43 43_60 60_5270 5270_201 201_5281 5281_71 71_91 91_117 117_111 111_124 124_139 139_5268 5268_141 141_341 341_5269 5269_7046 7046_162 162_160 160_180 180_196 196_208 208_206 206_205 205_204 204_203 203_401 401_402 402_490 490_189"/>
    </vehicle>
    <vehicle id="28" depart="28.00">
        <route edges="186_184 184_183 183_174 174_149 149_421 421_165 165_150 150_147 147_5264 5264_342 342_142 142_5263 5263_127 127_125 125_124 124_123 123_122 122_121 121_120 120_5243 5243_105 105_5242 5242_7055 7055_5242 5242_105"/>
    </vehicle>
    <vehicle id="29" depart="29.00">
        <route edges="181_180 180_181 181_183 183_193 193_197 197_479 479_477 477_210 210_222 222_236 236_423 423_248 248_253 253_267"/>
    </vehicle>
    <vehicle id="30" depart="30.00">
        <route edges="95_92 92_548 548_91 91_71 71_5281 5281_201 201_5270 5270_60 60_43 43_41 41_5207 5207_5206 5206_23 23_509 509_16"/>
    </vehicle>
    <vehicle id="31" depart="31.00">
        <route edges="462_225 225_7 7_10 10_17 17_224 224_18 18_21 21_59 59_5208 5208_58"/>
    </vehicle>
    <vehicle id="32" depart="32.00">
        <route edges="7042_5266 5266_125 125_5265 5265_112 112_92 92_74 74_5227 5227_73 73_134 134_5278 5278_5293"/>
    </vehicle>
    <vehicle id="33" depart="33.00">
        <route edges="215_422 422_240 240_236 236_222 222_210 210_477 477_479 479_197 197_193 193_183 183_174 174_149 149_421 421_165 165_150 150_147 147_5264 5264_342 342_142 142_5263 5263_127 127_125 125_124 124_123 123_122 122_121 121_5245 5245_5244 5244_110 110_5239"/>
    </vehicle>
    <vehicle id="34" depart="34.00">
        <route edges="277_745 745_746 746_228 228_229 229_481 481_226 226_221 221_204 204_203 203_453"/>
    </vehicle>
    <vehicle id="35" depart="35.00">
        <route edges="206_482 482_231 231_232 232_236 236_222 222_210 210_477 477_479 479_197 197_193 193_183 183_174 174_149 149_421 421_165 165_150 150_147 147_5264 5264_342 342_142 142_5263 5263_127 127_113 113_106 106_94 94_93 93_82 82_7243"/>
    </vehicle>
    <vehicle id="36" depart="36.00">
        <route edges="7216_30 30_31 31_43 43_60 60_5270 5270_201 201_5281 5281_71 71_91 91_548 548_92 92_95 95_549 549_94 94_96 96_97 97_99 99_114 114_115 115_116 116_130 130_5261 5261_144 144_344 344_5262 5262_168 168_170 170_415 415_172 172_223 223_172"/>
    </vehicle>
    <vehicle id="37" depart="37.00">
        <route edges="5210_286 286_518 518_178 178_180 180_181 181_183 183_184 184_186 186_188 188_191 191_411 411_280 280_370"/>
    </vehicle>
    <vehicle id="38" depart="38.00">
        <route edges="7272_96 96_97 97_99 99_114 114_115 115_116 116_130 130_5261 5261_144 144_344 344_5262 5262_168 168_293 293_290 290_175 175_177 177_409 409_186 186_410 410_195 195_198 198_215 215_422 422_240 240_244 244_338 338_245 245_338 338_244"/>
    </vehicle>
    <vehicle id="39" depart="39.00">
        <route edges="236_222 222_210 210_209 209_208 208_196 196_161"/>
    </vehicle>
    <vehicle id="40" depart="40.00">
        <route edges="468_505 505_504 504_503 503_307 307_306 306_6 6_7002 7002_13 13_24 24_36 36_5232 5232_69 69_68 68_86 86_104 104_109 109_105 105_5243 5243_120 120_5275 5275_5274 5274_140 140_340 340_251 251_7053 7053_252 252_157 157_159 159_160 160_180 180_196 196_208 208_206 206_205 205_204 204_203 203_401 401_402 402_202 202_402"/>
    </vehicle>
    <vehicle id="41" depart="41.00">
        <route edges="487_202 202_402 402_401 401_203 203_204 204_205 205_206 206_208 208_209 209_210 210_477 477_479 479_197 197_193 193_183 183_174 174_149 149_421 421_165 165_150 150_147 147_5264 5264_342 342_142 142_5263 5263_127 127_113 113_106 106_94 94_93 93_82 82_76 76_64 64_5288 5288_7054 7054_62"/>
    </vehicle>
    <vehicle id="42" depart="42.00">
        <route edges="338_245 245_289 289_268 268_429 429_383 383_220 220_379 379_373 373_391 391_191 191_188 188_186 186_184 184_183 183_181 181_180 180_196"/>
    </vehicle>
    <vehicle id="43" depart="43.00">
        <route edges="99_97 97_99 99_114 114_115 115_116 116_130 130_5261 5261_144 144_344 344_5262 5262_168 168_293 293_290 290_175 175_177 177_409 409_186 186_410 410_195 195_198 198_215 215_216 216_219 219_220 220_420 420_381 381_375"/>
    </vehicle>
    <vehicle id="44" depart="44.00">
        <route edges="141_341 341_141 141_5268 5268_139 139_124 124_125 125_127 127_128 128_129 129_126 126_130 130_116 116_115 115_114"/>
    </vehicle>
    <vehicle id="45" depart="45.00">
        <route edges="153_154 154_155 155_355 355_250 250_156 156_294 294_252 252_7053 7053_251 251_340 340_140 140_5274 5274_5275 5275_120 120_5243 5243_105 105_109 109_104 104_86 86_68 68_69 69_5232 5232_36 36_24 24_13 13_7002 7002_6 6_306 306_307 307_503 503_504 504_465"/>
    </vehicle>
    <vehicle id="46" depart="46.00">
        <route edges="55_5279 5279_532 532_5286 5286_5277 5277_103 103_303 303_5290"/>
    </vehicle>
    <vehicle id="47" depart="47.00">
        <route edges="128_129 129_126 126_130 130_5261 5261_144 144_344 344_5262 5262_168 168_293 293_290 290_175 175_177 177_409 409_186 186_410 410_195 195_198 198_215 215_422 422_240 240_244 244_338 338_245 245_445 445_254 254_2881"/>
    </vehicle>
    <vehicle id="48" depart="48.00">
        <route edges="99_114 114_99 99_525 525_66 66_51 51_50 50_49 49_516 516_47 47_46 46_45 45_44 44_43 43_41 41_40 40_39 39_544"/>
    </vehicle>
    <vehicle id="49" depart="49.00">
        <route edges="88_87 87_88 88_89 89_91 91_548 548_92 92_95 95_549 549_94 94_96 96_97 97_99 99_525 525_66 66_51 51_20 20_37 37_61 61_460"/>
    </vehicle>
    <vehicle id="50" depart="50.00">
        <route edges="106_113 113_106 106_94 94_549 549_95 95_92 92_548 548_91 91_89 89_88 88_5238 5238_70"/>
    </vehicle>
    <vehicle id="51" depart="51.00">
        <route edges="5234_70 70_5238 5238_88 88_5239 5239_110 110_5244 5244_5245 5245_121 121_388 388_325 325_418 418_159 159_160 160_180 180_196 196_208 208_206 206_205 205_204 204_203 203_401 401_402 402_490"/>
    </vehicle>
    <vehicle id="52" depart="52.00">
        <route edges="236_423 423_248 248_423 423_236 236_222 222_210 210_477 477_479 479_197 197_193 193_183 183_174 174_149 149_421 421_165 165_150 150_147 147_5264 5264_342 342_142 142_5263 5263_127 127_113 113_106 106_94 94_549 549_95 95_92 92_548 548_91 91_71 71_5281 5281_201 201_5270 5270_60 60_43 43_31 31_30 30_27 27_28 28_511 511_509 509_23"/>
    </vehicle>
    <vehicle id="53" depart="53.00">
        <route edges="154_155 155_355 355_250 250_156 156_294 294_252 252_7053 7053_251 251_340 340_140 140_5274 5274_5275 5275_120 120_5243 5243_105 105_109 109_104 104_86 86_68 68_69 69_5232 5232_36 36_24 24_13 13_7002 7002_6 6_306 306_307 307_503 503_504 504_505 505_506 506_507 507_8 8_320 320_319 319_9 9_319 319_320"/>
    </vehicle>
    <vehicle id="54" depart="54.00">
        <route edges="37_20 20_51 51_66 66_525 525_99 99_97 97_96 96_94 94_549 549_95 95_92 92_548 548_91 91_89 89_88 88_87 87_5287 5287_86 86_85 85_86"/>
    </vehicle>
    <vehicle id="55" depart="55.00">
        <route edges="7215_30 30_31 31_43 43_60 60_5270 5270_201 201_5281 5281_71 71_91 91_117 117_111 111_124 124_139 139_5268 5268_141 141_341 341_5269 5269_7046 7046_162 162_160 160_180 180_196 196_208 208_206 206_205 205_204 204_203 203_401 401_402 402_202 202_403"/>
    </vehicle>
    <vehicle id="56" depart="56.00">
        <route edges="416_100 100_98 98_7027 7027_135 135_5249 5249_5248 5248_132 132_131 131_5246 5246_130 130_126 126_129 129_128 128_127 127_5263 5263_142 142_342 342_5264 5264_147 147_150 150_165 165_163 163_162"/>
    </vehicle>
    <vehicle id="57" depart="57.00">
        <route edges="7270_5282 5282_303 303_103 103_102 102_99 99_97 97_96 96_94 94_93 93_82 82_76 76_54 54_75 75_65 65_497"/>
    </vehicle>
    <vehicle id="58" depart="58.00">
        <route edges="258_250 250_156 156_294 294_252 252_7053 7053_251 251_340 340_140 140_5274 5274_5275 5275_120 120_5243 5243_105 105_109 109_104 104_86 86_68 68_69 69_5232 5232_36 36_24 24_13 13_7002 7002_6 6_306 306_307 307_503 503_504 504_505 505_506 506_507 507_8"/>
    </vehicle>
    <vehicle id="59" depart="59.00">
        <route edges="504_505 505_504 504_503 503_307 307_306 306_6 6_7002 7002_13 13_24 24_36 36_5232 5232_69 69_68 68_86 86_104 104_109 109_105 105_5243 5243_120 120_5275 5275_5274 5274_140 140_340 340_251 251_7053 7053_252 252_294 294_156 156_250 250_355 355_155 155_154 154_153 153_154"/>
    </vehicle>
    <vehicle id="60" depart="60.00">
        <route edges="530_5221 5221_532 532_5286 5286_5277 5277_103 103_5291 5291_283 283_5283 5283_135 135_7027 7027_98 98_100 100_416 416_172 172_223 223_432 432_370 370_280 280_411 411_191 191_391 391_373 373_379 379_220 220_420 420_405 405_199"/>
    </vehicle>
    <vehicle id="61" depart="61.00">
        <route edges="542_519 519_517 517_49 49_33 33_18 18_224 224_17 17_10 10_7 7_225 225_3 3_2"/>
    </vehicle>
    <vehicle id="62" depart="62.00">
        <route edges="100_416 416_172 172_415 415_170 170_168 168_166 166_165 165_163 163_162 162_160 160_180 180_196 196_161 161_171 171_406 406_204 204_221 221_226 226_481"/>
    </vehicle>
    <vehicle id="63" depart="63.00">
        <route edges="10_17 17_224 224_18 18_33 33_49 49_517 517_63 63_62 62_7054 7054_65 65_75 75_7245"/>
    </vehicle>
    <vehicle id="64" depart="64.00">
        <route edges="7221_50 50_51 51_53 53_7226"/>
    </vehicle>
    <vehicle id="65" depart="65.00">
        <route edges="268_289 289_245 245_338 338_244 244_240 240_236 236_232 232_208 208_196 196_180 180_160 160_159 159_157 157_156 156_250 250_355 355_155 155_154 154_153 153_152 152_744 744_118 118_744"/>
    </vehicle>
    <vehicle id="66" depart="66.00">
        <route edges="7219_62 62_7054 7054_65 65_75 75_52 52_74 74_5227 5227_73 73_134 134_5293 5293_71 71_91 91_89 89_88 88_87 87_5287 5287_86 86_85 85_80 80_90 90_83 83_84"/>
    </vehicle>
    <vehicle id="67" depart="67.00">
        <route edges="139_5268 5268_141 141_5268 5268_139 139_124 124_111 111_117 117_91 91_71 71_5281 5281_201 201_5270 5270_60 60_43 43_31 31_30 30_27 27_28 28_511 511_29 29_7004 7004_329 329_8 8_320 320_319 319_9 9_350 350_359 359_358 358_357 357_2 2_357 357_358 358_359"/>
    </vehicle>
    <vehicle id="68" depart="68.00">
        <route edges="130_5246 5246_131 131_5246 5246_130 130_116 116_115 115_114 114_99 99_525 525_526 526_493"/>
    </vehicle>
    <vehicle id="69" depart="69.00">
        <route edges="532_533 533_5282 5282_303 303_103 103_102 102_99 99_97 97_96 96_94 94_106 106_113 113_127 127_125 125_124 124_139 139_5268 5268_141 141_7044"/>
    </vehicle>
    <vehicle id="70" depart="70.00">
        <route edges="397_138 138_5250 5250_335 335_135 135_7027 7027_98 98_100 100_416 416_172 172_223 223_432 432_370 370_280 280_411 411_4"/>
    </vehicle>
    <vehicle id="71" depart="71.00">
        <route edges="236_222 222_210 210_477 477_479 479_197 197_193 193_183 183_174 174_149 149_421 421_165 165_150 150_147 147_5264 5264_342 342_142 142_5263 5263_127 127_113 113_106 106_94 94_96 96_97 97_99 99_525 525_66 66_51"/>
    </vehicle>
    <vehicle id="72" depart="72.00">
        <route edges="357_358 358_359 359_350 350_9 9_10 10_17 17_224 224_18 18_33 33_49 49_517 517_63 63_64 64_76 76_82 82_93 93_94 94_106 106_113 113_127 127_5263 5263_142 142_342 342_5264 5264_147 147_150 150_165 165_421 421_149 149_174 174_183 183_181 181_180 180_178 178_287"/>
    </vehicle>
    <vehicle id="73" depart="73.00">
        <route edges="445_254 254_445 445_245 245_338 338_244 244_240 240_236 236_222 222_210 210_477 477_479 479_197 197_193 193_183 183_174 174_149 149_421 421_165 165_150 150_147 147_5264 5264_342 342_142 142_5263 5263_127 127_125 125_124 124_123 123_122 122_121 121_120 120_5243 5243_105 105_5242 5242_7055"/>
    </vehicle>
    <vehicle id="74" depart="74.00">
        <route edges="202_403 403_81 81_403 403_202 202_402 402_401 401_203 203_204 204_205 205_206 206_208 208_209 209_210 210_222 222_236"/>
    </vehicle>
    <vehicle id="75" depart="75.00">
        <route edges="99_102 102_99 99_525 525_66 66_51 51_50 50_49 49_516 516_515 515_514 514_513 513_512 512_46"/>
    </vehicle>
    <vehicle id="76" depart="76.00">
        <route edges="36_25 25_36 36_5232 5232_69 69_68 68_86 86_104 104_109 109_105 105_5243 5243_120 120_5275 5275_5274 5274_140 140_340 340_251 251_7053 7053_252 252_157 157_159 159_418 418_325 325_388 388_121"/>
    </vehicle>
    <vehicle id="77" depart="77.00">
        <route edges="159_418 418_325 325_388 388_121 121_122 122_123 123_124 124_125 125_127 127_5263 5263_142 142_342 342_5264 5264_147 147_150 150_165 165_421 421_149 149_174 174_183 183_193"/>
    </vehicle>
    <vehicle id="78" depart="78.00">
        <route edges="293_168 168_5262 5262_344 344_144 144_5261 5261_130 130_116 116_115 115_114 114_99 99_525 525_66 66_51 51_50 50_49 49_516 516_47 47_46 46_45 45_7210"/>
    </vehicle>
    <vehicle id="79" depart="79.00">
        <route edges="216_215 215_198 198_195 195_410 410_186 186_184 184_183 183_181 181_180"/>
    </vehicle>
    <vehicle id="80" depart="80.00">
        <route edges="131_132 132_131 131_5246 5246_130 130_116 116_115 115_114 114_99 99_525 525_66 66_51 51_20 20_42 42_19 19_12 12_11 11_10 10_9 9_319 319_320 320_8 8_507 507_506 506_505 505_467"/>
    </vehicle>
    <vehicle id="81" depart="81.00">
        <route edges="215_216 216_215 215_213 213_210 210_477 477_479 479_197 197_193 193_183 183_174 174_149 149_421 421_165 165_150 150_147 147_5264 5264_342 342_142 142_5263 5263_127 127_113 113_106 106_94 94_549 549_95 95_92 92_548 548_91 91_71 71_5293"/>
    </vehicle>
    <vehicle id="82" depart="82.00">
        <route edges="70_5231 5231_38 38_5231 5231_70 70_5238 5238_88 88_5239 5239_110 110_5244 5244_5245 5245_121 121_122 122_121"/>
    </vehicle>
    <vehicle id="83" depart="83.00">
        <route edges="220_379 379_373 373_391 391_191 191_188 188_186 186_184 184_183 183_174 174_149 149_421 421_165 165_150 150_147 147_5264 5264_342 342_142 142_5263 5263_127 127_113 113_106 106_94 94_93 93_82 82_76 76_64 64_63 63_517 517_519 519_520"/>
    </vehicle>
    <vehicle id="84" depart="84.00">
        <route edges="208_209 209_210 210_477 477_479 479_197 197_193 193_183 183_174 174_149 149_421 421_165 165_150 150_147 147_5264 5264_342 342_142 142_5263 5263_127 127_113 113_106 106_94 94_93 93_82 82_76 76_64 64_63 63_517 517_49 49_33 33_18 18_21 21_59 59_5208 5208_58 58_56 56_5205 5205_29 29_5204 5204_16 16_143 143_16"/>
    </vehicle>
    <vehicle id="85" depart="85.00">
        <route edges="744_152 152_153 153_154 154_155 155_355 355_250 250_156 156_157 157_159 159_160 160_180 180_196 196_208 208_209 209_210 210_213 213_215 215_216 216_219 219_220 220_383 383_429 429_268"/>
    </vehicle>
    <vehicle id="86" depart="86.00">
        <route edges="394_513 513_512 512_27 27_30 30_31 31_43 43_60 60_5270 5270_201 201_5281 5281_72"/>
    </vehicle>
    <vehicle id="87" depart="87.00">
        <route edges="64_5288 5288_7054 7054_5288 5288_64 64_76 76_82 82_93 93_94 94_106 106_113 113_127 127_5263 5263_142 142_342 342_5264 5264_147 147_150 150_165 165_166 166_168 168_5262"/>
    </vehicle>
    <vehicle id="88" depart="88.00">
        <route edges="144_5261 5261_130 130_116 116_115 115_114 114_99 99_97 97_96 96_94 94_549 549_95 95_92 92_548 548_91 91_71 71_5281 5281_201 201_5270 5270_60 60_43 43_31 31_30 30_7215"/>
    </vehicle>
    <vehicle id="89" depart="89.00">
        <route edges="358_357 357_2 2_357 357_358 358_359 359_350 350_9 9_319 319_320 320_8 8_329 329_7004 7004_29 29_511 511_28 28_27 27_30 30_31 31_43 43_60 60_5270 5270_201 201_5281 5281_71 71_91 91_117 117_111 111_124 124_139 139_5268 5268_141 141_341 341_141"/>
    </vehicle>
    <vehicle id="90" depart="90.00">
        <route edges="5276_102 102_99 99_525 525_66 66_51 51_66"/>
    </vehicle>
    <vehicle id="91" depart="91.00">
        <route edges="93_82 82_93 93_94 94_96 96_97 97_99 99_114 114_115 115_116 116_130 130_5261"/>
    </vehicle>
    <vehicle id="92" depart="92.00">
        <route edges="33_49 49_517 517_63 63_64 64_76 76_82 82_93 93_94 94_106 106_113 113_127 127_5263 5263_142 142_342 342_5264 5264_147 147_150 150_165 165_421 421_149 149_174 174_183 183_193 193_197 197_479 479_477 477_210 210_222 222_236 236_232 232_269"/>
    </vehicle>
    <vehicle id="93" depart="93.00">
        <route edges="70_5234 5234_5235 5235_5236 5236_5229 5229_71 71_91 91_117 117_111 111_124 124_139 139_5268 5268_141 141_341 341_5269 5269_7046 7046_162 162_160 160_180 180_196 196_208"/>
    </vehicle>
    <vehicle id="94" depart="94.00">
        <route edges="197_193 193_183 183_174 174_149 149_421 421_165 165_150 150_147 147_5264 5264_342 342_142 142_5263 5263_127 127_113 113_106 106_94 94_93 93_82 82_76 76_64 64_63 63_517 517_49 49_33 33_18 18_21 21_59 59_5208 5208_58 58_56 56_5205 5205_29 29_7004 7004_329 329_8"/>
    </vehicle>
    <vehicle id="95" depart="95.00">
        <route edges="357_2 2_3 3_225 225_7 7_10 10_17 17_224 224_18 18_33 33_49 49_517 517_63 63_64 64_76 76_82 82_93 93_94 94_106 106_113 113_127 127_5263 5263_142 142_342 342_5264 5264_147 147_150 150_165 165_421 421_149 149_174 174_183 183_193 193_197 197_479 479_477 477_210 210_209 209_208 208_206"/>
    </vehicle>
    <vehicle id="96" depart="96.00">
        <route edges="228_229 229_231 231_232 232_208 208_196 196_180 180_160 160_159 159_157 157_252 252_7053 7053_251 251_340 340_140 140_5274 5274_5275 5275_120 120_5243 5243_105 105_109 109_104 104_86 86_68 68_69 69_5232 5232_36 36_34 34_35 35_747 747_7060"/>
    </vehicle>
    <vehicle id="97" depart="97.00">
        <route edges="372_172 172_416 416_100 100_98 98_7027 7027_135 135_5283 5283_283 283_5291 5291_103 103_5277 5277_5286 5286_532 532_5279 5279_55 55_22 22_5217 5217_61 61_5217"/>
    </vehicle>
    <vehicle id="98" depart="98.00">
        <route edges="456_83 83_90 90_80 80_85 85_86 86_5287 5287_87 87_88 88_89 89_91 91_548 548_92 92_95 95_549 549_94 94_96 96_97 97_99 99_114 114_115 115_116 116_115"/>
    </vehicle>
    <vehicle id="99" depart="99.00">
        <route edges="9_350 350_359 359_358 358_357 357_2 2_3 3_225 225_7 7_10 10_17 17_224 224_18 18_33 33_49 49_517 517_63 63_64 64_76 76_54 54_443"/>
    </vehicle>
    <vehicle id="100" depart="100.00">
        <route edges="87_88 88_89 89_91 91_71 71_5293 5293_5278 5278_134 134_73 73_5227 5227_74 74_92"/>
    </vehicle>
    <vehicle id="101" depart="101.00">
        <route edges="7048_141 141_341 341_5269 5269_7046 7046_162 162_163 163_165 165_166 166_168 168_170 170_415 415_172 172_372 372_158 158_426 426_158 158_372"/>
    </vehicle>
    <vehicle id="102" depart="102.00">
        <route edges="404_513 513_514 514_515 515_516 516_49 49_517 517_63 63_64 64_76 76_82 82_93 93_94 94_106 106_113 113_127 127_5263 5263_142 142_342 342_5264 5264_147 147_150 150_165 165_421 421_149 149_174 174_183 183_181 181_180 180_178 178_518"/>
    </vehicle>
    <vehicle id="103" depart="103.00">
        <route edges="33_18 18_33 33_49 49_517 517_63 63_64 64_76 76_82 82_93 93_94 94_106 106_113 113_127 127_125 125_124 124_123 123_122 122_121 121_120 120_119 119_120"/>
    </vehicle>
    <vehicle id="104" depart="104.00">
        <route edges="322_5216 5216_7011 7011_5216 5216_322 322_22 22_5217 5217_61 61_37 37_20 20_51 51_66 66_525 525_99 99_97 97_96 96_94 94_549 549_95 95_549"/>
    </vehicle>
    <vehicle id="105" depart="105.00">
        <route edges="236_222 222_210 210_477 477_479 479_197 197_193 193_183 183_174 174_149 149_421 421_165 165_150 150_147 147_5264 5264_342 342_142 142_5263 5263_127 127_113 113_106 106_94 94_93 93_82 82_76 76_54 54_75 75_52 52_74 74_5227 5227_73 73_134 134_5278 5278_72 72_5281 5281_71"/>
    </vehicle>
    <vehicle id="106" depart="106.00">
        <route edges="37_61 61_5217 5217_22 22_55 55_5279 5279_532 532_5286 5286_5277 5277_103 103_303 303_79"/>
    </vehicle>
    <vehicle id="107" depart="107.00">
        <route edges="81_403 403_202 202_402 402_401 401_203 203_204 204_205 205_206 206_208 208_209 209_210 210_477 477_479 479_197 197_193 193_183 183_174 174_149 149_421 421_165 165_150 150_147 147_5264 5264_342 342_142 142_5263 5263_127 127_113 113_106 106_94 94_96 96_97 97_99 99_114"/>
    </vehicle>
    <vehicle id="108" depart="108.00">
        <route edges="461_507 507_8 8_329 329_7004 7004_29 29_511 511_28 28_27 27_30 30_31 31_43 43_41 41_40 40_39 39_38 38_5231 5231_70 70_5234 5234_5235 5235_5236"/>
    </vehicle>
    <vehicle id="109" depart="109.00">
        <route edges="177_409 409_186 186_410 410_195 195_198 198_215 215_216 216_219"/>
    </vehicle>
    <vehicle id="110" depart="110.00">
        <route edges="87_88 88_89 89_91 91_548 548_92 92_95 95_549 549_94 94_106 106_113 113_127 127_5263 5263_142 142_342 342_5264 5264_147 147_150 150_165 165_421 421_149 149_174 174_183 183_193 193_197 197_479 479_477 477_210 210_222 222_236 236_240 240_244 244_338 338_245 245_445 445_245"/>
    </vehicle>
    <vehicle id="111" depart="111.00">
        <route edges="448_268 268_429 429_383 383_220 220_219 219_216 216_215 215_198 198_195 195_410 410_186 186_409 409_177 177_175 175_290 290_293 293_168 168_5262 5262_344 344_144 144_5261 5261_130 130_5261 5261_144"/>
    </vehicle>
    <vehicle id="112" depart="112.00">
        <route edges="125_5265 5265_112 112_111 111_117 117_91 91_71 71_5281 5281_201 201_5270 5270_60 60_43 43_44 44_7209"/>
    </vehicle>
    <vehicle id="113" depart="113.00">
        <route edges="418_159 159_157 157_252 252_7053 7053_251 251_340 340_140 140_5274 5274_5275 5275_120 120_5243 5243_105 105_109 109_104 104_86 86_68 68_69 69_5232 5232_36 36_24 24_13 13_7002 7002_6 6_306 306_307 307_503 503_5 5_284"/>
    </vehicle>
    <vehicle id="114" depart="114.00">
        <route edges="17_10 10_17 17_224 224_18 18_33 33_49 49_517 517_63 63_64 64_76 76_82 82_93 93_94 94_549 549_95 95_92 92_548 548_91 91_89 89_88 88_5239"/>
    </vehicle>
    <vehicle id="115" depart="115.00">
        <route edges="135_7027 7027_98 98_100 100_416 416_172 172_415 415_170 170_168 168_166 166_168"/>
    </vehicle>
    <vehicle id="116" depart="116.00">
        <route edges="496_389 389_470 470_389 389_496 496_17 17_224 224_18 18_21 21_59 59_5208 5208_58 58_56 56_5205 5205_29 29_5204 5204_16 16_143 143_5202 5202_5201 5201_247 247_5201 5201_5202 5202_143"/>
    </vehicle>
    <vehicle id="117" depart="117.00">
        <route edges="21_48 48_515 515_516 516_47 47_46 46_45 45_44 44_43 43_60 60_5270 5270_201 201_5281 5281_71 71_91 91_117 117_111 111_124 124_139 139_5268"/>
    </vehicle>
    <vehicle id="118" depart="118.00">
        <route edges="7240_524 524_525 525_99 99_114 114_115 115_116 116_130 130_5261 5261_144 144_344 344_5262 5262_168 168_293 293_290 290_175 175_177 177_409 409_186 186_410 410_195 195_410"/>
    </vehicle>
    <vehicle id="119" depart="119.00">
        <route edges="496_387 387_233 233_387 387_496 496_17 17_224 224_18 18_33 33_49 49_517 517_63 63_64 64_76 76_82 82_93 93_94 94_106 106_113 113_127 127_5263 5263_142 142_342 342_5264 5264_147 147_150 150_165 165_421 421_149 149_174 174_183 183_184 184_186 186_188 188_191 191_411 411_4 4_377"/>
    </vehicle>
    <vehicle id="120" depart="120.00">