<?xml version="1.0" ?>
<nodes>
    <node id="1" x="410393.6083325022" y="3691010.2333459374"/>
    <node id="2" x="413083.3675871901" y="3701691.1675571753" type="traffic_light"/>
    <node id="3" x="413892.79077970935" y="3701701.253254441" type="traffic_light"/>
    <node id="4" x="416880.33057894104" y="3692252.543364443"/>
    <node id="5" x="411254.8479420974" y="3700991.224037859" type="traffic_light"/>
    <node id="6" x="410675.130489834" y="3700162.724581032" type="traffic_light"/>
    <node id="7" x="413886.5196466793" y="3700902.643081459" type="traffic_light"/>
    <node id="8" x="412308.8448563432" y="3700208.9735351903" type="traffic_light"/>
    <node id="9" x="413472.575415578" y="3700480.9799987944" type="traffic_light"/>
    <node id="10" x="413889.7888688867" y="3700486.977949674" type="traffic_light"/>
    <node id="11" x="414668.7084483215" y="3700493.6834889553" type="traffic_light"/>
    <node id="12" x="415453.2240502402" y="3700479.0084475544" type="traffic_light"/>
    <node id="13" x="410671.5718669655" y="3699326.6039019506" type="traffic_light"/>
    <node id="14" x="411468.1971509101" y="3699471.7997747385" type="traffic_light"/>
    <node id="15" x="417839.1948754196" y="3695060.116859262"/>
    <node id="16" x="412348.98242632684" y="3699284.7036709646" type="traffic_light"/>
    <node id="17" x="413888.32411155663" y="3700019.2485835915" type="traffic_light"/>
    <node id="18" x="413885.2787066802" y="3699206.2876395695" type="traffic_light"/>
    <node id="19" x="415463.9049231383" y="3700074.2478741845" type="traffic_light"/>
    <node id="20" x="415485.3011495678" y="3699234.559477931" type="traffic_light"/>
    <node id="21" x="413623.07771305786" y="3699190.3624412552" type="traffic_light"/>
    <node id="22" x="417063.7980423709" y="3699241.69451532" type="traffic_light"/>
    <node id="23" x="412294.53430142376" y="3698854.9296624125" type="traffic_light"/>
    <node id="24" x="410667.5440902413" y="3698878.7011851436" type="traffic_light"/>
    <node id="25" x="411075.9035470888" y="3698475.8458727384" type="traffic_light"/>
    <node id="26" x="413376.62667724537" y="3698723.3120683697"/>
    <node id="27" x="412605.3227580921" y="3698852.135055533" type="traffic_light"/>
    <node id="28" x="412606.3091021637" y="3698961.8250617697" type="traffic_light"/>
    <node id="29" x="412609.4326952584" y="3699309.1767451004" type="traffic_light"/>
    <node id="30" x="412604.1994532121" y="3698727.2103256383" type="traffic_light"/>
    <node id="31" x="412603.04878534866" y="3698599.2386504863" type="traffic_light"/>
    <node id="32" x="410016.6072404717" y="3693820.3998613306"/>
    <node id="33" x="413879.48924899765" y="3698731.8933612523" type="traffic_light"/>
    <node id="34" x="410260.5294960177" y="3698482.262893353" type="traffic_light"/>
    <node id="35" x="409867.46597196464" y="3698485.187564157" type="traffic_light"/>
    <node id="36" x="410663.9550734721" y="3698479.549777813" type="traffic_light"/>
    <node id="37" x="415887.49521393375" y="3699230.94262554" type="traffic_light"/>
    <node id="38" x="411459.21029844694" y="3698472.3994937306" type="traffic_light"/>
    <node id="39" x="411930.26887157396" y="3698468.164126513" type="traffic_light"/>
    <node id="40" x="412217.90077738126" y="3698465.5779816057" type="traffic_light"/>
    <node id="41" x="412379.3889510332" y="3698464.126016073" type="traffic_light"/>
    <node id="42" x="415477.17922682763" y="3699551.2337139794" type="traffic_light"/>
    <node id="43" x="412601.8159658946" y="3698462.1261406876" type="traffic_light"/>
    <node id="44" x="412772.4448365054" y="3698460.5919910143" type="traffic_light"/>
    <node id="45" x="412912.6042190754" y="3698459.331797485" type="traffic_light"/>
    <node id="46" x="413071.0452094375" y="3698457.907231804" type="traffic_light"/>
    <node id="47" x="413459.8347963791" y="3698454.411570907" type="traffic_light"/>
    <node id="48" x="413618.74872397305" y="3698708.946240009"/>
    <node id="49" x="413878.48403791955" y="3698450.647441005" type="traffic_light"/>
    <node id="50" x="414676.78068808" y="3698443.4698611097" type="traffic_light"/>
    <node id="51" x="415478.122923299" y="3698436.2649102397" type="traffic_light"/>
    <node id="52" x="413258.8177233309" y="3697651.761661786" type="traffic_light"/>
    <node id="53" x="416276.4168988654" y="3698429.0873786667" type="traffic_light"/>
    <node id="54" x="413590.313768314" y="3697647.5628342335" type="traffic_light"/>
    <node id="55" x="417056.4280618719" y="3698422.074241009" type="traffic_light"/>
    <node id="56" x="412854.83937571687" y="3699388.9392058155" type="traffic_light"/>
    <node id="57" x="417888.23547012504" y="3698414.595411943" type="traffic_light"/>
    <node id="58" x="413049.7094171563" y="3699372.2554911184" type="traffic_light"/>
    <node id="59" x="413425.06177429156" y="3699229.9282441684" type="traffic_light"/>
    <node id="60" x="412598.9395439435" y="3698142.1969483155" type="traffic_light"/>
    <node id="61" x="416284.91251053114" y="3699238.3385337554" type="traffic_light"/>
    <node id="62" x="413628.120892287" y="3698056.7645333135" type="traffic_light"/>
    <node id="63" x="413875.6076317759" y="3698130.719124492" type="traffic_light"/>
    <node id="64" x="413873.3066648936" y="3697874.7764684423" type="traffic_light"/>
    <node id="65" x="413519.1092973782" y="3697760.3393261572" type="traffic_light"/>
    <node id="66" x="415473.5755940027" y="3697930.475209715" type="traffic_light"/>
    <node id="67" x="409853.0994051625" y="3697565.0596413007" type="traffic_light"/>
    <node id="68" x="410655.2168356076" y="3697507.5703704217" type="traffic_light"/>
    <node id="69" x="410656.723283802" y="3697675.1530295163" type="traffic_light"/>
    <node id="70" x="411451.97853384935" y="3697668.0041172286" type="traffic_light"/>
    <node id="71" x="412595.4983205487" y="3697657.7245180686" type="traffic_light"/>
    <node id="72" x="412630.61224962224" y="3697801.236267757" type="traffic_light"/>
    <node id="73" x="412865.7622427526" y="3697655.2950012987" type="traffic_light"/>
    <node id="74" x="413057.71961186395" y="3697653.569416138" type="traffic_light"/>
    <node id="75" x="413456.86880915664" y="3697649.9812991787" type="traffic_light"/>
    <node id="76" x="413871.25234888506" y="3697646.256237691" type="traffic_light"/>
    <node id="77" x="408819.0447766758" y="3693649.846098788"/>
    <node id="78" x="418284.33374260133" y="3698411.0340736816"/>
    <node id="79" x="417366.17175145535" y="3696811.9125202415"/>
    <node id="80" x="409847.53684099356" y="3697081.8223093115" type="traffic_light"/>
    <node id="81" x="408966.5267829341" y="3690424.8734871442"/>
    <node id="82" x="413869.4172546269" y="3697442.1114965193" type="traffic_light"/>
    <node id="83" x="409036.73526741064" y="3696885.2513261316" type="traffic_light"/>
    <node id="84" x="409041.46303679235" y="3697106.1318615503" type="traffic_light"/>
    <node id="85" x="410170.3102401919" y="3696886.642412312" type="traffic_light"/>
    <node id="86" x="410649.49288175534" y="3696870.7562558027" type="traffic_light"/>
    <node id="87" x="411158.3345394251" y="3696866.1829224867" type="traffic_light"/>
    <node id="88" x="411450.84206167643" y="3696863.5539451027" type="traffic_light"/>
    <node id="89" x="411849.992650077" y="3696859.9664918236" type="traffic_light"/>
    <node id="90" x="409500.62392034475" y="3696998.399633178" type="traffic_light"/>
    <node id="91" x="412596.49473047344" y="3696853.2571494076" type="traffic_light"/>
    <node id="92" x="413050.48928515316" y="3696849.176784436" type="traffic_light"/>
    <node id="93" x="413866.6510874231" y="3697134.370913503" type="traffic_light"/>
    <node id="94" x="413864.0220474646" y="3696841.865009433" type="traffic_light"/>
    <node id="95" x="413452.6854340924" y="3696845.561971135" type="traffic_light"/>
    <node id="96" x="414208.3257511229" y="3696838.7705205576" type="traffic_light"/>
    <node id="97" x="414662.31874702324" y="3696834.6901837396" type="traffic_light"/>
    <node id="98" x="416978.75845625467" y="3694594.3179018856"/>
    <node id="99" x="415463.66103159613" y="3696827.4879975775" type="traffic_light"/>
    <node id="100" x="416975.56547176687" y="3694001.3688290617"/>
    <node id="101" x="413102.2175477597" y="3702499.1121826707" type="traffic_light"/>
    <node id="102" x="416520.94329213223" y="3696817.985530358" type="traffic_light"/>
    <node id="103" x="417041.9662666953" y="3696813.302773648" type="traffic_light"/>
    <node id="104" x="410645.7686707673" y="3696456.370029125" type="traffic_light"/>
    <node id="105" x="410638.5951260333" y="3695658.067132246" type="traffic_light"/>
    <node id="106" x="413860.0514495932" y="3696400.0592105733" type="traffic_light"/>
    <node id="107" x="409031.08700933686" y="3696460.21570731" type="traffic_light"/>
    <node id="108" x="409026.08608584164" y="3696073.264442327" type="traffic_light"/>
    <node id="109" x="410642.20910748915" y="3696060.2655414343" type="traffic_light"/>
    <node id="110" x="411443.5583128596" y="3696053.064623751" type="traffic_light"/>
    <node id="111" x="412601.39879729104" y="3696042.6603006697" type="traffic_light"/>
    <node id="112" x="413043.260346177" y="3696044.784127673"/>
    <node id="113" x="413856.7931337735" y="3696037.4737562314" type="traffic_light"/>
    <node id="114" x="415456.3226497025" y="3696010.911799545" type="traffic_light"/>
    <node id="115" x="415454.5704118437" y="3695815.908524607" type="traffic_light"/>
    <node id="116" x="415452.84563236404" y="3695623.9521744195" type="traffic_light"/>
    <node id="117" x="412593.48153588874" y="3696314.540874054" type="traffic_light"/>
    <node id="118" x="409015.81145235716" y="3695268.892203981" type="traffic_light"/>
    <node id="119" x="409576.45337885333" y="3695263.85522975" type="traffic_light"/>
    <node id="120" x="410635.0362410068" y="3695261.962632141" type="traffic_light"/>
    <node id="121" x="411454.6671865219" y="3695254.5988387517" type="traffic_light"/>
    <node id="122" x="411838.5830348282" y="3695251.1496361033" type="traffic_light"/>
    <node id="123" x="412225.545510011" y="3695247.6730646864" type="traffic_light"/>
    <node id="124" x="412603.3668265489" y="3695244.2786226515" type="traffic_light"/>
    <node id="125" x="413036.03279505426" y="3695240.3914458505" type="traffic_light"/>
    <node id="126" x="415240.7948747562" y="3695220.5833806824" type="traffic_light"/>
    <node id="127" x="413849.56560793397" y="3695233.082478089" type="traffic_light"/>
    <node id="128" x="414160.3530521472" y="3695230.2902948726" type="traffic_light"/>
    <node id="129" x="414650.9092884584" y="3695225.8830327927" type="traffic_light"/>
    <node id="130" x="415449.2046907984" y="3695218.7109860764" type="traffic_light"/>
    <node id="131" x="415848.3518928408" y="3695215.1249717292" type="traffic_light"/>
    <node id="132" x="416247.4987642246" y="3695211.53896335" type="traffic_light"/>
    <node id="133" x="417148.6211581739" y="3694134.499031886"/>
    <node id="134" x="412804.8233788664" y="3697655.84280641"/>
    <node id="135" x="417027.5100224014" y="3695204.5312083717" type="traffic_light"/>
    <node id="136" x="417168.4263022651" y="3694643.1970145786"/>
    <node id="137" x="417175.4207546146" y="3694845.1609496074"/>
    <node id="138" x="417841.9501365012" y="3695197.2141506895" type="traffic_light"/>
    <node id="139" x="412607.8542822812" y="3694726.215879241" type="traffic_light"/>
    <node id="140" x="410630.21859446826" y="3694725.6980683324" type="traffic_light"/>
    <node id="141" x="412611.7585458779" y="3694482.40555075" type="traffic_light"/>
    <node id="142" x="413824.4957570148" y="3694477.6063803374" type="traffic_light"/>
    <node id="143" x="412343.34887214354" y="3699335.947170832"/>
    <node id="144" x="415430.31090893864" y="3694472.323520965" type="traffic_light"/>
    <node id="145" x="417668.02684820164" y="3691981.58772824"/>
    <node id="146" x="413555.18301793246" y="3693839.5073274714"/>
    <node id="147" x="413819.9289314553" y="3694138.8006767714" type="traffic_light"/>
    <node id="148" x="416442.59508894046" y="3688872.9008083916"/>
    <node id="149" x="413608.87096211355" y="3692929.7454052395" type="traffic_light"/>
    <node id="150" x="413644.349794714" y="3693792.694022897" type="traffic_light"/>
    <node id="151" x="416847.24481811596" y="3693183.1392348395"/>
    <node id="152" x="409394.32882551063" y="3693646.507900785" type="traffic_light"/>
    <node id="153" x="409590.5616291064" y="3693645.659732325" type="traffic_light"/>
    <node id="154" x="409795.9598658035" y="3693647.471738934" type="traffic_light"/>
    <node id="155" x="409904.4673335641" y="3693650.4586234153" type="traffic_light"/>
    <node id="156" x="410410.5101313748" y="3693639.5148108453" type="traffic_light"/>
    <node id="157" x="410597.59067192895" y="3693637.52995667" type="traffic_light"/>
    <node id="158" x="416963.78424722917" y="3693503.87305639"/>
    <node id="159" x="411401.36661027407" y="3693629.092531008" type="traffic_light"/>
    <node id="160" x="412005.5797095057" y="3693623.970947021" type="traffic_light"/>
    <node id="161" x="411128.4676658851" y="3691030.148510055"/>
    <node id="162" x="412618.0433951292" y="3693621.5177444257" type="traffic_light"/>
    <node id="163" x="412999.237931676" y="3693620.5320770964" type="traffic_light"/>
    <node id="164" x="416022.1207006285" y="3692068.5813502558"/>
    <node id="165" x="413611.70578126906" y="3693618.688272087" type="traffic_light"/>
    <node id="166" x="414365.8634694502" y="3693616.4861367014" type="traffic_light"/>
    <node id="167" x="412614.2964633618" y="3690183.1016047318"/>
    <node id="168" x="415416.1977489026" y="3693613.45241332" type="traffic_light"/>
    <node id="169" x="410489.38235633745" y="3694549.920633863"/>
    <node id="170" x="416220.32209859893" y="3693610.801530546" type="traffic_light"/>
    <node id="171" x="410447.84758062486" y="3690670.592664097"/>
    <node id="172" x="416869.0468654337" y="3693608.9368148833" type="traffic_light"/>
    <node id="173" x="414670.0533381148" y="3700304.441662825"/>
    <node id="174" x="413604.8787939968" y="3692417.2448874544" type="traffic_light"/>
    <node id="175" x="415223.5038020337" y="3692922.255685481" type="traffic_light"/>
    <node id="176" x="414369.1513403913" y="3693541.4960020455"/>
    <node id="177" x="415221.4320839836" y="3692623.651282086" type="traffic_light"/>
    <node id="178" x="411190.9774382259" y="3692019.3179710926" type="traffic_light"/>
    <node id="179" x="409626.8811069921" y="3690665.162099007"/>
    <node id="180" x="411997.20633387903" y="3692012.689634302" type="traffic_light"/>
    <node id="181" x="412682.79124303756" y="3692008.9726796392" type="traffic_light"/>
    <node id="182" x="416221.0930673989" y="3693526.997513038"/>
    <node id="183" x="413605.7371801698" y="3692003.734303609" type="traffic_light"/>
    <node id="184" x="414410.4247455623" y="3691995.596238622" type="traffic_light"/>
    <node id="185" x="415288.12329548" y="3692924.417905671"/>
    <node id="186" x="415216.63167287863" y="3691987.1398321195" type="traffic_light"/>
    <node id="187" x="410490.06440214533" y="3690009.8846138357"/>
    <node id="188" x="416022.905623579" y="3691986.3007610696" type="traffic_light"/>
    <node id="189" x="409584.7988613335" y="3690152.389556154"/>
    <node id="190" x="411189.03041806817" y="3690716.0480887103"/>
    <node id="191" x="416817.5944687412" y="3691984.956249932" type="traffic_light"/>
    <node id="192" x="416218.96270338364" y="3693730.8721211418"/>
    <node id="193" x="413602.29150451324" y="3691348.31594679" type="traffic_light"/>
    <node id="194" x="410817.2143373765" y="3690471.9521463867"/>
    <node id="195" x="415213.5086562387" y="3691537.405056537" type="traffic_light"/>
    <node id="196" x="411994.74346483836" y="3691025.420708155" type="traffic_light"/>
    <node id="197" x="413603.721021148" y="3691202.0382826705" type="traffic_light"/>
    <node id="198" x="415213.286255413" y="3691207.09344555" type="traffic_light"/>
    <node id="199" x="417400.4516582624" y="3690382.0982347"/>
    <node id="200" x="414362.6166569589" y="3693696.046672582"/>
    <node id="201" x="412596.74813168356" y="3697898.4413705054"/>
    <node id="202" x="409475.0875820672" y="3690422.747480339" type="traffic_light"/>
    <node id="203" x="410120.1489736402" y="3690419.0918104784" type="traffic_light"/>
    <node id="204" x="410377.01597369666" y="3690417.700875114" type="traffic_light"/>
    <node id="205" x="410806.6453264756" y="3690414.7595902043" type="traffic_light"/>
    <node id="206" x="411193.91340502724" y="3690411.2842923286" type="traffic_light"/>
    <node id="207" x="412685.84486000275" y="3692145.4593814616"/>
    <node id="208" x="412000.7462398757" y="3690404.043879565" type="traffic_light"/>
    <node id="209" x="412639.729307789" y="3690402.5758042173" type="traffic_light"/>
    <node id="210" x="413594.66000272735" y="3690396.1394290426" type="traffic_light"/>
    <node id="211" x="415098.6585947623" y="3691540.569006595"/>
    <node id="212" x="415320.4366786932" y="3691534.312218281"/>
    <node id="213" x="414403.5887137893" y="3690385.223620422" type="traffic_light"/>
    <node id="214" x="416023.652267612" y="3691899.754480403"/>
    <node id="215" x="415213.15824024624" y="3690377.958694596" type="traffic_light"/>
    <node id="216" x="415615.99206375564" y="3690377.695631569" type="traffic_light"/>
    <node id="217" x="415118.15762541164" y="3692626.406849397"/>
    <node id="218" x="415305.51634859154" y="3692621.6774518406"/>
    <node id="219" x="416440.5632777985" y="3690378.5234430837" type="traffic_light"/>
    <node id="220" x="416769.6661251814" y="3690379.531450754" type="traffic_light"/>
    <node id="221" x="410369.70129493554" y="3690010.0504726046" type="traffic_light"/>
    <node id="222" x="413595.9244311459" y="3689586.186576299" type="traffic_light"/>
    <node id="223" x="416854.6963962794" y="3693503.9385727486"/>
    <node id="224" x="413884.6498718327" y="3699746.25406264" type="traffic_light"/>
    <node id="225" x="413878.5445251015" y="3701201.643461089" type="traffic_light"/>
    <node id="226" x="410368.15785922576" y="3689430.4859134327" type="traffic_light"/>
    <node id="227" x="413772.74245660147" y="3694143.795274511"/>
    <node id="228" x="410030.66912198096" y="3688800.913558578" type="traffic_light"/>
    <node id="229" x="410367.37473966647" y="3688799.721491408" type="traffic_light"/>
    <node id="230" x="414408.58883888315" y="3691723.1949361977"/>
    <node id="231" x="411185.2054299478" y="3688795.432414038" type="traffic_light"/>
    <node id="232" x="411991.4507814854" y="3688790.6378254676" type="traffic_light"/>
    <node id="233" x="414477.207347977" y="3700105.671965111"/>
    <node id="234" x="413327.7020915684" y="3691344.076822573"/>
    <node id="235" x="413892.3791107054" y="3691347.845181167"/>
    <node id="236" x="413593.5995384623" y="3688783.5791795384" type="traffic_light"/>
    <node id="237" x="414402.4730201855" y="3690498.5886818347"/>
    <node id="238" x="414404.69076403027" y="3690270.3350928714"/>
    <node id="239" x="414411.6600669997" y="3692167.1413143105"/>
    <node id="240" x="415199.08624653495" y="3688775.5764381615" type="traffic_light"/>
    <node id="241" x="416435.5687498444" y="3690263.3854092923"/>
    <node id="242" x="415129.010720478" y="3692918.8381203115"/>
    <node id="243" x="410360.3167954109" y="3687842.9624139606" type="traffic_light"/>
    <node id="244" x="416441.44582823745" y="3688778.7537097344" type="traffic_light"/>
    <node id="245" x="416828.43192055007" y="3688778.3294642325" type="traffic_light"/>
    <node id="246" x="409855.75979811506" y="3699386.047785104" type="traffic_light"/>
    <node id="247" x="411823.94347812823" y="3699487.1883329186" type="traffic_light"/>
    <node id="248" x="413593.37609348085" y="3687977.2963193073" type="traffic_light"/>
    <node id="249" x="414684.9415195189" y="3699249.3749078885" type="traffic_light"/>
    <node id="250" x="410195.7432156669" y="3693646.3191217356" type="traffic_light"/>
    <node id="251" x="410619.5256989615" y="3694349.4644646756" type="traffic_light"/>
    <node id="252" x="410554.50880480086" y="3693896.015053799" type="traffic_light"/>
    <node id="253" x="413596.7333524567" y="3687570.162445498" type="traffic_light"/>
    <node id="254" x="416929.07743094256" y="3688890.171635199"/>
    <node id="255" x="413889.9785284883" y="3689586.290756502"/>
    <node id="256" x="416840.17114629695" y="3688592.3472344996"/>
    <node id="257" x="416924.5871687917" y="3688593.4183223844"/>
    <node id="258" x="410195.3902190206" y="3693607.0133288396"/>
    <node id="259" x="409592.40706150635" y="3693715.4242766877"/>
    <node id="260" x="413320.49749319174" y="3689590.486048125"/>
    <node id="261" x="410354.6144803468" y="3687071.156514519"/>
    <node id="262" x="415193.4112721105" y="3688312.761696105"/>
    <node id="263" x="413598.8694595965" y="3687162.734812314"/>
    <node id="264" x="409049.64397925104" y="3698185.686304498"/>
    <node id="265" x="413463.27178767597" y="3687978.4631796745"/>
    <node id="266" x="413746.94178506715" y="3687975.919042335"/>
    <node id="267" x="413489.16546986724" y="3687569.908216631"/>
    <node id="268" x="416831.17987259314" y="3688914.8177059684"/>
    <node id="269" x="411989.4975312814" y="3687995.337605746"/>
    <node id="270" x="412667.77481382" y="3690641.528550419"/>
    <node id="271" x="410573.2283549076" y="3694351.708645116"/>
    <node id="272" x="410021.97259761224" y="3688952.4377733143"/>
    <node id="273" x="410012.4895635992" y="3688642.6218540547"/>
    <node id="274" x="412619.52983424615" y="3693379.8621816942"/>
    <node id="275" x="415047.99833088065" y="3697705.763033374"/>
    <node id="276" x="409486.57192833966" y="3689019.7085418366"/>
    <node id="277" x="409465.23421448376" y="3688611.268972136"/>
    <node id="278" x="409580.57727768144" y="3695451.5263497964"/>
    <node id="279" x="409564.0918857362" y="3688999.2062517265"/>
    <node id="280" x="416785.8925360547" y="3692255.2195111774"/>
    <node id="281" x="413719.59642262023" y="3693756.67089537"/>
    <node id="282" x="416939.7057477914" y="3693299.624701202"/>
    <node id="283" x="417033.18441492505" y="3695632.6064678403"/>
    <node id="284" x="411134.39690278296" y="3701015.466410314"/>
    <node id="285" x="409903.0051471251" y="3693521.5748418225"/>
    <node id="286" x="411205.07257666835" y="3693114.0503152134"/>
    <node id="287" x="410999.0110644806" y="3692020.1271564453"/>
    <node id="288" x="417787.9902378451" y="3688779.168062312"/>
    <node id="289" x="416829.54838113836" y="3688868.8201835724"/>
    <node id="290" x="415224.8844723099" y="3693109.949177002"/>
    <node id="291" x="409507.29110153747" y="3690140.2867732625"/>
    <node id="292" x="415850.5517702034" y="3697494.3880918715"/>
    <node id="293" x="415409.11704423587" y="3693469.6894685137"/>
    <node id="294" x="410483.5968406712" y="3693804.0169205843"/>
    <node id="295" x="409861.9151422108" y="3698986.198617245"/>
    <node id="296" x="408572.1725586772" y="3695272.8779926137"/>
    <node id="297" x="408674.1513256404" y="3696889.1195923425"/>
    <node id="298" x="409857.3817634651" y="3696888.8455017195"/>
    <node id="299" x="409045.16795540723" y="3697281.008653596"/>
    <node id="300" x="408723.8427595738" y="3697230.570640199"/>
    <node id="301" x="410155.44600824255" y="3696758.488598918"/>
    <node id="302" x="413325.37136397575" y="3698614.683672842"/>
    <node id="303" x="417194.3120605893" y="3696811.933548437" type="traffic_light"/>
    <node id="304" x="409499.05037392705" y="3697569.1564336456"/>
    <node id="305" x="409683.9355901184" y="3696882.1769308476"/>
    <node id="306" x="410680.8351128206" y="3700322.651460286" type="traffic_light"/>
    <node id="307" x="410980.7109040754" y="3700698.721206888"/>
    <node id="308" x="417038.42051923234" y="3693874.956512246"/>
    <node id="309" x="412153.4976907514" y="3691024.9100162275"/>
    <node id="310" x="416440.37925280374" y="3690459.8844111217"/>
    <node id="311" x="409884.7475065341" y="3689077.0807177355"/>
    <node id="312" x="411252.2489024594" y="3701176.517177658"/>
    <node id="313" x="411607.59540285764" y="3700910.3469805657"/>
    <node id="314" x="412139.2106778298" y="3700524.360371904"/>
    <node id="315" x="409588.18069641583" y="3693584.1274647554"/>
    <node id="316" x="410015.29030466627" y="3693504.1115379315"/>
    <node id="317" x="413574.7367204237" y="3700015.6700553484"/>
    <node id="318" x="409797.5826003497" y="3693828.156662022"/>
    <node id="319" x="413109.30341729324" y="3700475.7156803813"/>
    <node id="320" x="412826.45264120813" y="3700366.123478057"/>
    <node id="321" x="417018.8888672347" y="3688779.3634401807"/>
    <node id="322" x="417216.1438222731" y="3699240.324496756" type="traffic_light"/>
    <node id="323" x="409906.39476516645" y="3693831.140767882"/>
    <node id="324" x="416899.31055430986" y="3693212.5338868895"/>
    <node id="325" x="411411.38043980685" y="3694743.97253855"/>
    <node id="326" x="414283.2086383751" y="3700896.6365721878"/>
    <node id="327" x="414672.40606189624" y="3700904.714483884"/>
    <node id="328" x="415479.3691992203" y="3701183.584218374"/>
    <node id="329" x="412339.3349477" y="3700109.360794646"/>
    <node id="330" x="412542.1673329349" y="3699792.152065412"/>
    <node id="331" x="411725.40421995014" y="3699982.6345697017"/>
    <node id="332" x="411470.00344153744" y="3700011.442376935"/>
    <node id="333" x="412006.0474475356" y="3699982.243386079"/>
    <node id="334" x="411733.3407795589" y="3700119.6870389488"/>
    <node id="335" x="417179.8558255629" y="3695203.1625088574" type="traffic_light"/>
    <node id="336" x="411424.9125663263" y="3700113.929104459"/>
    <node id="337" x="411959.1284492428" y="3700084.7464366765"/>
    <node id="338" x="416743.11273816926" y="3688778.4853764824"/>
    <node id="339" x="410432.30936868995" y="3700201.170451428"/>
    <node id="340" x="410629.06901999016" y="3694597.7258412093" type="traffic_light"/>
    <node id="341" x="412610.82799339073" y="3694378.809425898" type="traffic_light"/>
    <node id="342" x="413823.4009958956" y="3694355.728903446" type="traffic_light"/>
    <node id="343" x="410879.55984022864" y="3700124.624072705"/>
    <node id="344" x="415429.2161529355" y="3694350.446463951" type="traffic_light"/>
    <node id="345" x="411190.01403513964" y="3691844.1126289684"/>
    <node id="346" x="411031.49232976604" y="3700178.7165476484"/>
    <node id="347" x="410483.1112739849" y="3700394.820448797"/>
    <node id="348" x="410597.2732493908" y="3693602.185243142"/>
    <node id="349" x="413538.1467438423" y="3700351.7989469445"/>
    <node id="350" x="413468.2964801352" y="3700648.9184080865"/>
    <node id="351" x="413905.8668402943" y="3702341.653393139"/>
    <node id="352" x="414704.21383291326" y="3701696.694457366"/>
    <node id="353" x="417609.7930236877" y="3693606.8551077503"/>
    <node id="354" x="411180.0252849694" y="3688591.6212205873"/>
    <node id="355" x="410015.04197454685" y="3693646.1136430507" type="traffic_light"/>
    <node id="356" x="412839.5436753403" y="3701685.7435295833"/>
    <node id="357" x="413081.23466301226" y="3701217.044292063"/>
    <node id="358" x="413307.2798537713" y="3700939.849607035"/>
    <node id="359" x="413417.4884609145" y="3700725.5551136355"/>
    <node id="360" x="413106.6865320617" y="3702792.5161605454"/>
    <node id="361" x="413369.74164728756" y="3702497.0092366477"/>
    <node id="362" x="412870.9738516074" y="3702503.32636452"/>
    <node id="363" x="408723.0913368084" y="3696061.9699684875"/>
    <node id="364" x="413459.7568838222" y="3698513.5276678503"/>
    <node id="365" x="409574.87114743877" y="3695087.7406731662"/>
    <node id="366" x="413816.6341067453" y="3692821.83788306"/>
    <node id="367" x="413351.445633182" y="3692936.6276791976"/>
    <node id="368" x="415735.9837487812" y="3699562.313710052"/>
    <node id="369" x="414684.2401493878" y="3699510.2196035506"/>
    <node id="370" x="416752.45355612884" y="3692603.505792321"/>
    <node id="371" x="416824.7106874423" y="3692472.1337316404"/>
    <node id="372" x="416972.64205356553" y="3693608.006453462" type="traffic_light"/>
    <node id="373" x="416749.516277456" y="3691733.262268945"/>
    <node id="374" x="410503.5990306721" y="3693927.553777986"/>
    <node id="375" x="416874.34036266385" y="3691754.9954787465"/>
    <node id="376" x="408951.4751831806" y="3698891.9991340665"/>
    <node id="377" x="416947.3249820698" y="3692587.1297446704"/>
    <node id="378" x="416882.34393905476" y="3692476.796459489"/>
    <node id="379" x="416763.3190960879" y="3690555.105014312"/>
    <node id="380" x="416793.2245935056" y="3690661.7920623384"/>
    <node id="381" x="416901.62847908615" y="3690517.6025676182"/>
    <node id="382" x="416866.1322684306" y="3690704.7121844776"/>
    <node id="383" x="416788.1428436274" y="3690061.5465296987"/>
    <node id="384" x="416820.380947569" y="3689952.778253626"/>
    <node id="385" x="416855.081785006" y="3689982.633797211"/>
    <node id="386" x="413474.1859948741" y="3699948.62222331"/>
    <node id="387" x="414338.6431598836" y="3700114.840972526"/>
    <node id="388" x="411456.42860079464" y="3695179.31721603"/>
    <node id="389" x="414334.9454429529" y="3699940.8802683707"/>
    <node id="390" x="413472.88577673334" y="3700075.0921114385"/>
    <node id="391" x="416811.7620585356" y="3691878.357901172"/>