<?xml version="1.0" ?>
<nodes>
    <node id="1" x="-111.78330264907109" y="34.86230151175907"/>
    <node id="2" x="-111.77850599953632" y="34.86339502369978"/>
    <node id="3" x="-111.78051600781293" y="34.86260101891244" type="traffic_light"/>
    <node id="4" x="-111.78056267460349" y="34.86327415123781"/>
    <node id="5" x="-111.78024601227689" y="34.86168885549362"/>
    <node id="6" x="-111.82956207176615" y="34.85080443335758"/>
    <node id="7" x="-111.78320266115085" y="34.86264494889976" type="traffic_light"/>
    <node id="8" x="-111.78320267830516" y="34.86317246485348"/>
    <node id="9" x="-111.7954195054973" y="34.86396560260594" type="traffic_light"/>
    <node id="10" x="-111.79072941068" y="34.86361715718633" type="traffic_light"/>
    <node id="11" x="-111.79075951171988" y="34.86443040826346"/>
    <node id="12" x="-111.79070265676953" y="34.86291105739097"/>
    <node id="13" x="-111.8291424638117" y="34.85136508856323"/>
    <node id="14" x="-111.79985276222503" y="34.86342922016812" type="traffic_light"/>
    <node id="15" x="-111.79990297198985" y="34.8643221426656"/>
    <node id="16" x="-111.7997925196384" y="34.862390682718086"/>
    <node id="17" x="-111.79538633202773" y="34.86485578960909"/>
    <node id="18" x="-111.79539259710666" y="34.862624836284716"/>
    <node id="20" x="-111.8047626190348" y="34.862865107195496" type="traffic_light"/>
    <node id="21" x="-111.80470918203952" y="34.86251069305453"/>
    <node id="22" x="-111.80494952821888" y="34.8636865659092"/>
    <node id="24" x="-111.81576524656928" y="34.8612688778274" type="traffic_light"/>
    <node id="25" x="-111.81595892575545" y="34.86208482288752"/>
    <node id="26" x="-111.81533829966634" y="34.86058213091757"/>
    <node id="30" x="-111.83170726798481" y="34.848943502420184"/>
    <node id="31" x="-111.82876188414032" y="34.850279983921524" type="traffic_light"/>
    <node id="32" x="-111.8303788758384" y="34.85123270873441"/>
    <node id="33" x="-111.82847469431721" y="34.8493019930091"/>
</nodes>
