<?xml version="1.0" ?>
<connections>
    <connection from="5_3" to="3_2" fromLane="0" toLane="0" dir="r"/>
    <connection from="5_3" to="3_4" fromLane="0" toLane="0" dir="s"/>
    <connection from="5_3" to="3_7" fromLane="1" toLane="2" dir="l"/>
    <connection from="4_3" to="3_7" fromLane="0" toLane="0" dir="r"/>
    <connection from="4_3" to="3_5" fromLane="0" toLane="0" dir="s"/>
    <connection from="4_3" to="3_2" fromLane="1" toLane="1" dir="l"/>
    <connection from="7_3" to="3_5" fromLane="0" toLane="0" dir="r"/>
    <connection from="7_3" to="3_2" fromLane="1" toLane="0" dir="s"/>
    <connection from="7_3" to="3_2" fromLane="2" toLane="1" dir="s"/>
    <connection from="7_3" to="3_4" fromLane="3" toLane="0" dir="l"/>
    <connection from="2_3" to="3_4" fromLane="0" toLane="0" dir="r"/>
    <connection from="2_3" to="3_7" fromLane="1" toLane="0" dir="s"/>
    <connection from="2_3" to="3_7" fromLane="2" toLane="1" dir="s"/>
    <connection from="2_3" to="3_5" fromLane="3" toLane="0" dir="l"/>
    <connection from="13_6" to="6_32" fromLane="0" toLane="0" dir="r"/>
    <connection from="13_6" to="6_31" fromLane="1" toLane="1" dir="l"/>
    <connection from="32_6" to="6_31" fromLane="0" toLane="0" dir="r"/>
    <connection from="32_6" to="6_31" fromLane="1" toLane="1" dir="r"/>
    <connection from="32_6" to="6_13" fromLane="1" toLane="0" dir="l"/>
    <connection from="31_6" to="6_13" fromLane="0" toLane="0" dir="r"/>
    <connection from="31_6" to="6_32" fromLane="0" toLane="0" dir="l"/>
    <connection from="31_6" to="6_32" fromLane="1" toLane="1" dir="l"/>
    <connection from="1_7" to="7_3" fromLane="0" toLane="0" dir="r"/>
    <connection from="1_7" to="7_8" fromLane="0" toLane="0" dir="s"/>
    <connection from="1_7" to="7_10" fromLane="0" toLane="2" dir="l"/>
    <connection from="8_7" to="7_10" fromLane="0" toLane="0" dir="r"/>
    <connection from="8_7" to="7_1" fromLane="0" toLane="0" dir="s"/>
    <connection from="8_7" to="7_3" fromLane="1" toLane="3" dir="l"/>
    <connection from="10_7" to="7_1" fromLane="0" toLane="0" dir="r"/>
    <connection from="10_7" to="7_3" fromLane="0" toLane="0" dir="s"/>
    <connection from="10_7" to="7_3" fromLane="1" toLane="1" dir="s"/>
    <connection from="10_7" to="7_8" fromLane="2" toLane="0" dir="l"/>
    <connection from="3_7" to="7_8" fromLane="0" toLane="0" dir="r"/>
    <connection from="3_7" to="7_10" fromLane="0" toLane="0" dir="s"/>
    <connection from="3_7" to="7_10" fromLane="1" toLane="1" dir="s"/>
    <connection from="3_7" to="7_1" fromLane="2" toLane="0" dir="l"/>
    <connection from="18_9" to="9_10" fromLane="0" toLane="0" dir="r"/>
    <connection from="18_9" to="9_17" fromLane="1" toLane="0" dir="s"/>
    <connection from="18_9" to="9_14" fromLane="2" toLane="3" dir="l"/>
    <connection from="17_9" to="9_14" fromLane="0" toLane="0" dir="r"/>
    <connection from="17_9" to="9_18" fromLane="1" toLane="0" dir="s"/>
    <connection from="17_9" to="9_10" fromLane="2" toLane="2" dir="l"/>
    <connection from="14_9" to="9_18" fromLane="0" toLane="0" dir="r"/>
    <connection from="14_9" to="9_10" fromLane="1" toLane="0" dir="s"/>
    <connection from="14_9" to="9_10" fromLane="2" toLane="1" dir="s"/>
    <connection from="14_9" to="9_17" fromLane="3" toLane="0" dir="l"/>
    <connection from="10_9" to="9_17" fromLane="0" toLane="0" dir="r"/>
    <connection from="10_9" to="9_14" fromLane="1" toLane="0" dir="s"/>
    <connection from="10_9" to="9_14" fromLane="2" toLane="1" dir="s"/>
    <connection from="10_9" to="9_18" fromLane="3" toLane="0" dir="l"/>
    <connection from="12_10" to="10_7" fromLane="0" toLane="0" dir="r"/>
    <connection from="12_10" to="10_11" fromLane="0" toLane="0" dir="s"/>
    <connection from="12_10" to="10_9" fromLane="1" toLane="3" dir="l"/>
    <connection from="11_10" to="10_9" fromLane="0" toLane="0" dir="r"/>
    <connection from="11_10" to="10_12" fromLane="0" toLane="0" dir="s"/>
    <connection from="11_10" to="10_7" fromLane="1" toLane="2" dir="l"/>
    <connection from="9_10" to="10_12" fromLane="0" toLane="0" dir="r"/>
    <connection from="9_10" to="10_7" fromLane="0" toLane="0" dir="s"/>
    <connection from="9_10" to="10_7" fromLane="1" toLane="1" dir="s"/>
    <connection from="9_10" to="10_11" fromLane="2" toLane="0" dir="l"/>
    <connection from="7_10" to="10_11" fromLane="0" toLane="0" dir="r"/>
    <connection from="7_10" to="10_9" fromLane="0" toLane="0" dir="s"/>
    <connection from="7_10" to="10_9" fromLane="1" toLane="1" dir="s"/>
    <connection from="7_10" to="10_12" fromLane="2" toLane="0" dir="l"/>
    <connection from="16_14" to="14_9" fromLane="0" toLane="0" dir="r"/>
    <connection from="16_14" to="14_15" fromLane="0" toLane="0" dir="s"/>
    <connection from="16_14" to="14_20" fromLane="1" toLane="3" dir="l"/>
    <connection from="15_14" to="14_20" fromLane="0" toLane="0" dir="r"/>
    <connection from="15_14" to="14_16" fromLane="1" toLane="0" dir="s"/>
    <connection from="15_14" to="14_9" fromLane="2" toLane="3" dir="l"/>
    <connection from="20_14" to="14_16" fromLane="0" toLane="0" dir="r"/>
    <connection from="20_14" to="14_9" fromLane="0" toLane="0" dir="s"/>
    <connection from="20_14" to="14_9" fromLane="1" toLane="1" dir="s"/>
    <connection from="20_14" to="14_15" fromLane="2" toLane="0" dir="l"/>
    <connection from="9_14" to="14_15" fromLane="0" toLane="0" dir="r"/>
    <connection from="9_14" to="14_20" fromLane="1" toLane="0" dir="s"/>
    <connection from="9_14" to="14_20" fromLane="2" toLane="1" dir="s"/>
    <connection from="9_14" to="14_16" fromLane="3" toLane="0" dir="l"/>
    <connection from="21_20" to="20_14" fromLane="0" toLane="0" dir="r"/>
    <connection from="21_20" to="20_22" fromLane="0" toLane="0" dir="s"/>
    <connection from="21_20" to="20_24" fromLane="1" toLane="3" dir="l"/>
    <connection from="22_20" to="20_24" fromLane="0" toLane="0" dir="r"/>
    <connection from="22_20" to="20_21" fromLane="0" toLane="0" dir="s"/>
    <connection from="22_20" to="20_14" fromLane="1" toLane="2" dir="l"/>
    <connection from="24_20" to="20_21" fromLane="0" toLane="0" dir="r"/>
    <connection from="24_20" to="20_14" fromLane="0" toLane="0" dir="s"/>
    <connection from="24_20" to="20_14" fromLane="1" toLane="1" dir="s"/>
    <connection from="24_20" to="20_22" fromLane="2" toLane="0" dir="l"/>
    <connection from="14_20" to="20_22" fromLane="0" toLane="0" dir="r"/>
    <connection from="14_20" to="20_24" fromLane="1" toLane="0" dir="s"/>
    <connection from="14_20" to="20_24" fromLane="2" toLane="1" dir="s"/>
    <connection from="14_20" to="20_21" fromLane="3" toLane="0" dir="l"/>
    <connection from="26_24" to="24_20" fromLane="0" toLane="0" dir="r"/>
    <connection from="26_24" to="24_25" fromLane="0" toLane="0" dir="s"/>
    <connection from="26_24" to="24_31" fromLane="1" toLane="3" dir="l"/>
    <connection from="25_24" to="24_31" fromLane="0" toLane="0" dir="r"/>
    <connection from="25_24" to="24_26" fromLane="0" toLane="0" dir="s"/>
    <connection from="25_24" to="24_20" fromLane="1" toLane="2" dir="l"/>
    <connection from="31_24" to="24_26" fromLane="0" toLane="0" dir="r"/>
    <connection from="31_24" to="24_20" fromLane="0" toLane="0" dir="s"/>
    <connection from="31_24" to="24_20" fromLane="1" toLane="1" dir="s"/>
    <connection from="31_24" to="24_25" fromLane="2" toLane="0" dir="l"/>
    <connection from="20_24" to="24_25" fromLane="0" toLane="0" dir="r"/>
    <connection from="20_24" to="24_31" fromLane="1" toLane="0" dir="s"/>
    <connection from="20_24" to="24_31" fromLane="2" toLane="1" dir="s"/>
    <connection from="20_24" to="24_26" fromLane="3" toLane="0" dir="l"/>
    <connection from="33_31" to="31_24" fromLane="0" toLane="0" dir="r"/>
    <connection from="33_31" to="31_6" fromLane="1" toLane="0" dir="s"/>
    <connection from="33_31" to="31_30" fromLane="2" toLane="1" dir="l"/>
    <connection from="6_31" to="31_30" fromLane="0" toLane="0" dir="r"/>
    <connection from="6_31" to="31_33" fromLane="0" toLane="0" dir="s"/>
    <connection from="6_31" to="31_24" fromLane="1" toLane="2" dir="l"/>
    <connection from="30_31" to="31_33" fromLane="0" toLane="0" dir="r"/>
    <connection from="30_31" to="31_24" fromLane="1" toLane="0" dir="s"/>
    <connection from="30_31" to="31_24" fromLane="2" toLane="1" dir="s"/>
    <connection from="30_31" to="31_6" fromLane="3" toLane="1" dir="l"/>
    <connection from="24_31" to="31_6" fromLane="0" toLane="0" dir="r"/>
    <connection from="24_31" to="31_30" fromLane="1" toLane="0" dir="s"/>
    <connection from="24_31" to="31_30" fromLane="2" toLane="1" dir="s"/>
    <connection from="24_31" to="31_33" fromLane="3" toLane="0" dir="l"/>
</connections>
