<?xml version="1.0" ?>
<additional>
    <inductionLoop id="5_3_0_detector" lane="5_3_0" pos="-8" friendlyPos="true" file="output_loop_detector_202504061500.xml"/>
    <inductionLoop id="5_3_1_detector" lane="5_3_1" pos="-8" friendlyPos="true" file="output_loop_detector_202504061500.xml"/>
    <inductionLoop id="4_3_0_detector" lane="4_3_0" pos="-8" friendlyPos="true" file="output_loop_detector_202504061500.xml"/>
    <inductionLoop id="4_3_1_detector" lane="4_3_1" pos="-8" friendlyPos="true" file="output_loop_detector_202504061500.xml"/>
    <inductionLoop id="7_3_0_detector" lane="7_3_0" pos="-8" friendlyPos="true" file="output_loop_detector_202504061500.xml"/>
    <inductionLoop id="7_3_1_detector" lane="7_3_1" pos="-8" friendlyPos="true" file="output_loop_detector_202504061500.xml"/>
    <inductionLoop id="7_3_2_detector" lane="7_3_2" pos="-8" friendlyPos="true" file="output_loop_detector_202504061500.xml"/>
    <inductionLoop id="7_3_3_detector" lane="7_3_3" pos="-8" friendlyPos="true" file="output_loop_detector_202504061500.xml"/>
    <inductionLoop id="2_3_0_detector" lane="2_3_0" pos="-8" friendlyPos="true" file="output_loop_detector_202504061500.xml"/>
    <inductionLoop id="2_3_1_detector" lane="2_3_1" pos="-8" friendlyPos="true" file="output_loop_detector_202504061500.xml"/>
    <inductionLoop id="2_3_2_detector" lane="2_3_2" pos="-8" friendlyPos="true" file="output_loop_detector_202504061500.xml"/>
    <inductionLoop id="2_3_3_detector" lane="2_3_3" pos="-8" friendlyPos="true" file="output_loop_detector_202504061500.xml"/>
    <inductionLoop id="1_7_0_detector" lane="1_7_0" pos="-8" friendlyPos="true" file="output_loop_detector_202504061500.xml"/>
    <inductionLoop id="8_7_0_detector" lane="8_7_0" pos="-8" friendlyPos="true" file="output_loop_detector_202504061500.xml"/>
    <inductionLoop id="8_7_1_detector" lane="8_7_1" pos="-8" friendlyPos="true" file="output_loop_detector_202504061500.xml"/>
    <inductionLoop id="10_7_0_detector" lane="10_7_0" pos="-8" friendlyPos="true" file="output_loop_detector_202504061500.xml"/>
    <inductionLoop id="10_7_1_detector" lane="10_7_1" pos="-8" friendlyPos="true" file="output_loop_detector_202504061500.xml"/>
    <inductionLoop id="10_7_2_detector" lane="10_7_2" pos="-8" friendlyPos="true" file="output_loop_detector_202504061500.xml"/>
    <inductionLoop id="3_7_0_detector" lane="3_7_0" pos="-8" friendlyPos="true" file="output_loop_detector_202504061500.xml"/>
    <inductionLoop id="3_7_1_detector" lane="3_7_1" pos="-8" friendlyPos="true" file="output_loop_detector_202504061500.xml"/>
    <inductionLoop id="3_7_2_detector" lane="3_7_2" pos="-8" friendlyPos="true" file="output_loop_detector_202504061500.xml"/>
    <inductionLoop id="18_9_0_detector" lane="18_9_0" pos="-8" friendlyPos="true" file="output_loop_detector_202504061500.xml"/>
    <inductionLoop id="18_9_1_detector" lane="18_9_1" pos="-8" friendlyPos="true" file="output_loop_detector_202504061500.xml"/>
    <inductionLoop id="18_9_2_detector" lane="18_9_2" pos="-8" friendlyPos="true" file="output_loop_detector_202504061500.xml"/>
    <inductionLoop id="17_9_0_detector" lane="17_9_0" pos="-8" friendlyPos="true" file="output_loop_detector_202504061500.xml"/>
    <inductionLoop id="17_9_1_detector" lane="17_9_1" pos="-8" friendlyPos="true" file="output_loop_detector_202504061500.xml"/>
    <inductionLoop id="17_9_2_detector" lane="17_9_2" pos="-8" friendlyPos="true" file="output_loop_detector_202504061500.xml"/>
    <inductionLoop id="14_9_0_detector" lane="14_9_0" pos="-8" friendlyPos="true" file="output_loop_detector_202504061500.xml"/>
    <inductionLoop id="14_9_1_detector" lane="14_9_1" pos="-8" friendlyPos="true" file="output_loop_detector_202504061500.xml"/>
    <inductionLoop id="14_9_2_detector" lane="14_9_2" pos="-8" friendlyPos="true" file="output_loop_detector_202504061500.xml"/>
    <inductionLoop id="14_9_3_detector" lane="14_9_3" pos="-8" friendlyPos="true" file="output_loop_detector_202504061500.xml"/>
    <inductionLoop id="10_9_0_detector" lane="10_9_0" pos="-8" friendlyPos="true" file="output_loop_detector_202504061500.xml"/>
    <inductionLoop id="10_9_1_detector" lane="10_9_1" pos="-8" friendlyPos="true" file="output_loop_detector_202504061500.xml"/>
    <inductionLoop id="10_9_2_detector" lane="10_9_2" pos="-8" friendlyPos="true" file="output_loop_detector_202504061500.xml"/>
    <inductionLoop id="10_9_3_detector" lane="10_9_3" pos="-8" friendlyPos="true" file="output_loop_detector_202504061500.xml"/>
    <inductionLoop id="12_10_0_detector" lane="12_10_0" pos="-8" friendlyPos="true" file="output_loop_detector_202504061500.xml"/>
    <inductionLoop id="12_10_1_detector" lane="12_10_1" pos="-8" friendlyPos="true" file="output_loop_detector_202504061500.xml"/>
    <inductionLoop id="11_10_0_detector" lane="11_10_0" pos="-8" friendlyPos="true" file="output_loop_detector_202504061500.xml"/>
    <inductionLoop id="11_10_1_detector" lane="11_10_1" pos="-8" friendlyPos="true" file="output_loop_detector_202504061500.xml"/>
    <inductionLoop id="9_10_0_detector" lane="9_10_0" pos="-8" friendlyPos="true" file="output_loop_detector_202504061500.xml"/>
    <inductionLoop id="9_10_1_detector" lane="9_10_1" pos="-8" friendlyPos="true" file="output_loop_detector_202504061500.xml"/>
    <inductionLoop id="9_10_2_detector" lane="9_10_2" pos="-8" friendlyPos="true" file="output_loop_detector_202504061500.xml"/>
    <inductionLoop id="7_10_0_detector" lane="7_10_0" pos="-8" friendlyPos="true" file="output_loop_detector_202504061500.xml"/>
    <inductionLoop id="7_10_1_detector" lane="7_10_1" pos="-8" friendlyPos="true" file="output_loop_detector_202504061500.xml"/>
    <inductionLoop id="7_10_2_detector" lane="7_10_2" pos="-8" friendlyPos="true" file="output_loop_detector_202504061500.xml"/>
    <inductionLoop id="16_14_0_detector" lane="16_14_0" pos="-8" friendlyPos="true" file="output_loop_detector_202504061500.xml"/>
    <inductionLoop id="16_14_1_detector" lane="16_14_1" pos="-8" friendlyPos="true" file="output_loop_detector_202504061500.xml"/>
    <inductionLoop id="15_14_0_detector" lane="15_14_0" pos="-8" friendlyPos="true" file="output_loop_detector_202504061500.xml"/>
    <inductionLoop id="15_14_1_detector" lane="15_14_1" pos="-8" friendlyPos="true" file="output_loop_detector_202504061500.xml"/>
    <inductionLoop id="15_14_2_detector" lane="15_14_2" pos="-8" friendlyPos="true" file="output_loop_detector_202504061500.xml"/>
    <inductionLoop id="20_14_0_detector" lane="20_14_0" pos="-8" friendlyPos="true" file="output_loop_detector_202504061500.xml"/>
    <inductionLoop id="20_14_1_detector" lane="20_14_1" pos="-8" friendlyPos="true" file="output_loop_detector_202504061500.xml"/>
    <inductionLoop id="20_14_2_detector" lane="20_14_2" pos="-8" friendlyPos="true" file="output_loop_detector_202504061500.xml"/>
    <inductionLoop id="9_14_0_detector" lane="9_14_0" pos="-8" friendlyPos="true" file="output_loop_detector_202504061500.xml"/>
    <inductionLoop id="9_14_1_detector" lane="9_14_1" pos="-8" friendlyPos="true" file="output_loop_detector_202504061500.xml"/>
    <inductionLoop id="9_14_2_detector" lane="9_14_2" pos="-8" friendlyPos="true" file="output_loop_detector_202504061500.xml"/>
    <inductionLoop id="9_14_3_detector" lane="9_14_3" pos="-8" friendlyPos="true" file="output_loop_detector_202504061500.xml"/>
    <inductionLoop id="21_20_0_detector" lane="21_20_0" pos="-8" friendlyPos="true" file="output_loop_detector_202504061500.xml"/>
    <inductionLoop id="21_20_1_detector" lane="21_20_1" pos="-8" friendlyPos="true" file="output_loop_detector_202504061500.xml"/>
    <inductionLoop id="22_20_0_detector" lane="22_20_0" pos="-8" friendlyPos="true" file="output_loop_detector_202504061500.xml"/>
    <inductionLoop id="22_20_1_detector" lane="22_20_1" pos="-8" friendlyPos="true" file="output_loop_detector_202504061500.xml"/>
    <inductionLoop id="24_20_0_detector" lane="24_20_0" pos="-8" friendlyPos="true" file="output_loop_detector_202504061500.xml"/>
    <inductionLoop id="24_20_1_detector" lane="24_20_1" pos="-8" friendlyPos="true" file="output_loop_detector_202504061500.xml"/>
    <inductionLoop id="24_20_2_detector" lane="24_20_2" pos="-8" friendlyPos="true" file="output_loop_detector_202504061500.xml"/>
    <inductionLoop id="14_20_0_detector" lane="14_20_0" pos="-8" friendlyPos="true" file="output_loop_detector_202504061500.xml"/>
    <inductionLoop id="14_20_1_detector" lane="14_20_1" pos="-8" friendlyPos="true" file="output_loop_detector_202504061500.xml"/>
    <inductionLoop id="14_20_2_detector" lane="14_20_2" pos="-8" friendlyPos="true" file="output_loop_detector_202504061500.xml"/>
    <inductionLoop id="14_20_3_detector" lane="14_20_3" pos="-8" friendlyPos="true" file="output_loop_detector_202504061500.xml"/>
    <inductionLoop id="26_24_0_detector" lane="26_24_0" pos="-8" friendlyPos="true" file="output_loop_detector_202504061500.xml"/>
    <inductionLoop id="26_24_1_detector" lane="26_24_1" pos="-8" friendlyPos="true" file="output_loop_detector_202504061500.xml"/>
    <inductionLoop id="25_24_0_detector" lane="25_24_0" pos="-8" friendlyPos="true" file="output_loop_detector_202504061500.xml"/>
    <inductionLoop id="25_24_1_detector" lane="25_24_1" pos="-8" friendlyPos="true" file="output_loop_detector_202504061500.xml"/>
    <inductionLoop id="31_24_0_detector" lane="31_24_0" pos="-8" friendlyPos="true" file="output_loop_detector_202504061500.xml"/>
    <inductionLoop id="31_24_1_detector" lane="31_24_1" pos="-8" friendlyPos="true" file="output_loop_detector_202504061500.xml"/>
    <inductionLoop id="31_24_2_detector" lane="31_24_2" pos="-8" friendlyPos="true" file="output_loop_detector_202504061500.xml"/>
    <inductionLoop id="20_24_0_detector" lane="20_24_0" pos="-8" friendlyPos="true" file="output_loop_detector_202504061500.xml"/>
    <inductionLoop id="20_24_1_detector" lane="20_24_1" pos="-8" friendlyPos="true" file="output_loop_detector_202504061500.xml"/>
    <inductionLoop id="20_24_2_detector" lane="20_24_2" pos="-8" friendlyPos="true" file="output_loop_detector_202504061500.xml"/>
    <inductionLoop id="20_24_3_detector" lane="20_24_3" pos="-8" friendlyPos="true" file="output_loop_detector_202504061500.xml"/>
    <inductionLoop id="33_31_0_detector" lane="33_31_0" pos="-8" friendlyPos="true" file="output_loop_detector_202504061500.xml"/>
    <inductionLoop id="33_31_1_detector" lane="33_31_1" pos="-8" friendlyPos="true" file="output_loop_detector_202504061500.xml"/>
    <inductionLoop id="33_31_2_detector" lane="33_31_2" pos="-8" friendlyPos="true" file="output_loop_detector_202504061500.xml"/>
    <inductionLoop id="6_31_0_detector" lane="6_31_0" pos="-8" friendlyPos="true" file="output_loop_detector_202504061500.xml"/>
    <inductionLoop id="6_31_1_detector" lane="6_31_1" pos="-8" friendlyPos="true" file="output_loop_detector_202504061500.xml"/>
    <inductionLoop id="30_31_0_detector" lane="30_31_0" pos="-8" friendlyPos="true" file="output_loop_detector_202504061500.xml"/>
    <inductionLoop id="30_31_1_detector" lane="30_31_1" pos="-8" friendlyPos="true" file="output_loop_detector_202504061500.xml"/>
    <inductionLoop id="30_31_2_detector" lane="30_31_2" pos="-8" friendlyPos="true" file="output_loop_detector_202504061500.xml"/>
    <inductionLoop id="30_31_3_detector" lane="30_31_3" pos="-8" friendlyPos="true" file="output_loop_detector_202504061500.xml"/>
    <inductionLoop id="24_31_0_detector" lane="24_31_0" pos="-8" friendlyPos="true" file="output_loop_detector_202504061500.xml"/>
    <inductionLoop id="24_31_1_detector" lane="24_31_1" pos="-8" friendlyPos="true" file="output_loop_detector_202504061500.xml"/>
    <inductionLoop id="24_31_2_detector" lane="24_31_2" pos="-8" friendlyPos="true" file="output_loop_detector_202504061500.xml"/>
    <inductionLoop id="24_31_3_detector" lane="24_31_3" pos="-8" friendlyPos="true" file="output_loop_detector_202504061500.xml"/>
</additional>
