<?xml version="1.0" encoding="UTF-8"?>

<!-- generated on 2025-04-06 15:00:19 by Eclipse SUMO jtrrouter Version 1.21.0
<jtrrouterConfiguration xmlns:xsi="http://www.w3.org/2001/XMLSchema-instance" xsi:noNamespaceSchemaLocation="http://sumo.dlr.de/xsd/jtrrouterConfiguration.xsd">

    <input>
        <net-file value="C:/Users/xyluo25/anaconda3_workspace/001_GitHub/utdf2gmns/datasets/Sedona/utdf_to_sumo/utdf_to_sumo.net.xml"/>
        <route-files value="C:/Users/xyluo25/anaconda3_workspace/001_GitHub/utdf2gmns/datasets/Sedona/utdf_to_sumo/utdf_to_sumo.flow.xml"/>
    </input>

    <output>
        <output-file value="C:/Users/xyluo25/anaconda3_workspace/001_GitHub/utdf2gmns/datasets/Sedona/utdf_to_sumo/utdf_to_sumo.rou.xml"/>
    </output>

    <processing>
        <no-internal-links value="false"/>
        <remove-loops value="true"/>
        <accept-all-destinations value="false"/>
    </processing>

    <report>
        <no-warnings value="true"/>
    </report>

</jtrrouterConfiguration>
-->

<routes xmlns:xsi="http://www.w3.org/2001/XMLSchema-instance" xsi:noNamespaceSchemaLocation="http://sumo.dlr.de/xsd/routes_file.xsd">
    <vType id="car"/>
    <vehicle id="10_14.0" type="car" depart="36840.00">
        <route edges="10_9 9_14"/>
    </vehicle>
    <vehicle id="10_17.0" type="car" depart="36840.00">
        <route edges="10_9 9_17"/>
    </vehicle>
    <vehicle id="10_18.0" type="car" depart="36840.00">
        <route edges="10_9 9_18"/>
    </vehicle>
    <vehicle id="10_3.0" type="car" depart="36840.00">
        <route edges="10_7 7_3"/>
    </vehicle>
    <vehicle id="10_8.0" type="car" depart="36840.00">
        <route edges="10_7 7_8"/>
    </vehicle>
    <vehicle id="11_12.0" type="car" depart="36840.00">
        <route edges="11_10 10_12"/>
    </vehicle>
    <vehicle id="11_7.0" type="car" depart="36840.00">
        <route edges="11_10 10_7"/>
    </vehicle>
    <vehicle id="12_11.0" type="car" depart="36840.00">
        <route edges="12_10 10_11"/>
    </vehicle>
    <vehicle id="12_9.0" type="car" depart="36840.00">
        <route edges="12_10 10_9"/>
    </vehicle>
    <vehicle id="14_10.0" type="car" depart="36840.00">
        <route edges="14_9 9_10"/>
    </vehicle>
    <vehicle id="14_17.0" type="car" depart="36840.00">
        <route edges="14_9 9_17"/>
    </vehicle>
    <vehicle id="14_18.0" type="car" depart="36840.00">
        <route edges="14_9 9_18"/>
    </vehicle>
    <vehicle id="14_21.0" type="car" depart="36840.00">
        <route edges="14_20 20_21"/>
    </vehicle>
    <vehicle id="14_22.0" type="car" depart="36840.00">
        <route edges="14_20 20_22"/>
    </vehicle>
    <vehicle id="14_24.0" type="car" depart="36840.00">
        <route edges="14_20 20_24"/>
    </vehicle>
    <vehicle id="15_16.0" type="car" depart="36840.00">
        <route edges="15_14 14_16"/>
    </vehicle>
    <vehicle id="15_20.0" type="car" depart="36840.00">
        <route edges="15_14 14_20"/>
    </vehicle>
    <vehicle id="15_9.0" type="car" depart="36840.00">
        <route edges="15_14 14_9"/>
    </vehicle>
    <vehicle id="16_15.0" type="car" depart="36840.00">
        <route edges="16_14 14_15"/>
    </vehicle>
    <vehicle id="16_20.0" type="car" depart="36840.00">
        <route edges="16_14 14_20"/>
    </vehicle>
    <vehicle id="17_10.0" type="car" depart="36840.00">
        <route edges="17_9 9_10"/>
    </vehicle>
    <vehicle id="17_14.0" type="car" depart="36840.00">
        <route edges="17_9 9_14"/>
    </vehicle>
    <vehicle id="17_18.0" type="car" depart="36840.00">
        <route edges="17_9 9_18"/>
    </vehicle>
    <vehicle id="18_10.0" type="car" depart="36840.00">
        <route edges="18_9 9_10"/>
    </vehicle>
    <vehicle id="18_14.0" type="car" depart="36840.00">
        <route edges="18_9 9_14"/>
    </vehicle>
    <vehicle id="18_17.0" type="car" depart="36840.00">
        <route edges="18_9 9_17"/>
    </vehicle>
    <vehicle id="20_15.0" type="car" depart="36840.00">
        <route edges="20_14 14_15"/>
    </vehicle>
    <vehicle id="20_9.0" type="car" depart="36840.00">
        <route edges="20_14 14_9"/>
    </vehicle>
    <vehicle id="21_22.0" type="car" depart="36840.00">
        <route edges="21_20 20_22"/>
    </vehicle>
    <vehicle id="21_24.0" type="car" depart="36840.00">
        <route edges="21_20 20_24"/>
    </vehicle>
    <vehicle id="22_14.0" type="car" depart="36840.00">
        <route edges="22_20 20_14"/>
    </vehicle>
    <vehicle id="22_21.0" type="car" depart="36840.00">
        <route edges="22_20 20_21"/>
    </vehicle>
    <vehicle id="24_14.0" type="car" depart="36840.00">
        <route edges="24_20 20_14"/>
    </vehicle>
    <vehicle id="24_22.0" type="car" depart="36840.00">
        <route edges="24_20 20_22"/>
    </vehicle>
    <vehicle id="2_4.0" type="car" depart="36840.00">
        <route edges="2_3 3_4"/>
    </vehicle>
    <vehicle id="2_5.0" type="car" depart="36840.00">
        <route edges="2_3 3_5"/>
    </vehicle>
    <vehicle id="2_7.0" type="car" depart="36840.00">
        <route edges="2_3 3_7"/>
    </vehicle>
    <vehicle id="3_10.0" type="car" depart="36840.00">
        <route edges="3_7 7_10"/>
    </vehicle>
    <vehicle id="4_2.0" type="car" depart="36840.00">
        <route edges="4_3 3_2"/>
    </vehicle>
    <vehicle id="5_4.0" type="car" depart="36840.00">
        <route edges="5_3 3_4"/>
    </vehicle>
    <vehicle id="5_7.0" type="car" depart="36840.00">
        <route edges="5_3 3_7"/>
    </vehicle>
    <vehicle id="7_12.0" type="car" depart="36840.00">
        <route edges="7_10 10_12"/>
    </vehicle>
    <vehicle id="7_2.0" type="car" depart="36840.00">
        <route edges="7_3 3_2"/>
    </vehicle>
    <vehicle id="7_4.0" type="car" depart="36840.00">
        <route edges="7_3 3_4"/>
    </vehicle>
    <vehicle id="7_5.0" type="car" depart="36840.00">
        <route edges="7_3 3_5"/>
    </vehicle>
    <vehicle id="7_9.0" type="car" depart="36840.00">
        <route edges="7_10 10_9"/>
    </vehicle>
    <vehicle id="8_3.0" type="car" depart="36840.00">
        <route edges="8_7 7_3"/>
    </vehicle>
    <vehicle id="9_11.0" type="car" depart="36840.00">
        <route edges="9_10 10_11"/>
    </vehicle>
    <vehicle id="9_15.0" type="car" depart="36840.00">
        <route edges="9_14 14_15"/>
    </vehicle>
    <vehicle id="9_16.0" type="car" depart="36840.00">
        <route edges="9_14 14_16"/>
    </vehicle>
    <vehicle id="9_20.0" type="car" depart="36840.00">
        <route edges="9_14 14_20"/>
    </vehicle>
    <vehicle id="9_7.0" type="car" depart="36840.00">
        <route edges="9_10 10_7"/>
    </vehicle>
    <vehicle id="2_7.1" type="car" depart="36848.49">
        <route edges="2_3 3_7"/>
    </vehicle>
    <vehicle id="3_10.1" type="car" depart="36848.65">
        <route edges="3_7 7_10"/>
    </vehicle>
    <vehicle id="7_9.1" type="car" depart="36849.16">
        <route edges="7_10 10_9"/>
    </vehicle>
    <vehicle id="10_14.1" type="car" depart="36849.29">
        <route edges="10_9 9_14"/>
    </vehicle>
    <vehicle id="9_20.1" type="car" depart="36849.56">
        <route edges="9_14 14_20"/>
    </vehicle>
    <vehicle id="9_7.1" type="car" depart="36849.60">
        <route edges="9_10 10_7"/>
    </vehicle>
    <vehicle id="7_2.1" type="car" depart="36849.93">
        <route edges="7_3 3_2"/>
    </vehicle>
    <vehicle id="14_24.1" type="car" depart="36850.21">
        <route edges="14_20 20_24"/>
    </vehicle>
    <vehicle id="24_14.1" type="car" depart="36851.34">
        <route edges="24_20 20_14"/>
    </vehicle>
    <vehicle id="20_9.1" type="car" depart="36851.39">
        <route edges="20_14 14_9"/>
    </vehicle>
    <vehicle id="14_10.1" type="car" depart="36851.48">
        <route edges="14_9 9_10"/>
    </vehicle>
    <vehicle id="10_3.1" type="car" depart="36851.52">
        <route edges="10_7 7_3"/>
    </vehicle>
    <vehicle id="2_7.2" type="car" depart="36856.98">
        <route edges="2_3 3_7"/>
    </vehicle>
    <vehicle id="3_10.2" type="car" depart="36857.31">
        <route edges="3_7 7_10"/>
    </vehicle>
    <vehicle id="7_9.2" type="car" depart="36858.32">
        <route edges="7_10 10_9"/>
    </vehicle>
    <vehicle id="10_14.2" type="car" depart="36858.58">
        <route edges="10_9 9_14"/>
    </vehicle>
    <vehicle id="9_20.2" type="car" depart="36859.12">
        <route edges="9_14 14_20"/>
    </vehicle>
    <vehicle id="9_7.2" type="car" depart="36859.20">
        <route edges="9_10 10_7"/>
    </vehicle>
    <vehicle id="7_2.2" type="car" depart="36859.86">
        <route edges="7_3 3_2"/>
    </vehicle>
    <vehicle id="14_24.2" type="car" depart="36860.42">
        <route edges="14_20 20_24"/>
    </vehicle>
    <vehicle id="24_14.2" type="car" depart="36862.68">
        <route edges="24_20 20_14"/>
    </vehicle>
    <vehicle id="20_9.2" type="car" depart="36862.78">
        <route edges="20_14 14_9"/>
    </vehicle>
    <vehicle id="14_10.2" type="car" depart="36862.97">
        <route edges="14_9 9_10"/>
    </vehicle>
    <vehicle id="10_3.2" type="car" depart="36863.04">
        <route edges="10_7 7_3"/>
    </vehicle>
    <vehicle id="2_7.3" type="car" depart="36865.47">
        <route edges="2_3 3_7"/>
    </vehicle>
    <vehicle id="3_10.3" type="car" depart="36865.96">
        <route edges="3_7 7_10"/>
    </vehicle>
    <vehicle id="7_9.3" type="car" depart="36867.48">
        <route edges="7_10 10_9"/>
    </vehicle>
    <vehicle id="10_14.3" type="car" depart="36867.87">
        <route edges="10_9 9_14"/>
    </vehicle>
    <vehicle id="9_20.3" type="car" depart="36868.68">
        <route edges="9_14 14_20"/>
    </vehicle>
    <vehicle id="9_7.3" type="car" depart="36868.80">
        <route edges="9_10 10_7"/>
    </vehicle>
    <vehicle id="7_2.3" type="car" depart="36869.79">
        <route edges="7_3 3_2"/>
    </vehicle>
    <vehicle id="14_24.3" type="car" depart="36870.64">
        <route edges="14_20 20_24"/>
    </vehicle>
    <vehicle id="2_7.4" type="car" depart="36873.96">
        <route edges="2_3 3_7"/>
    </vehicle>
    <vehicle id="24_14.3" type="car" depart="36874.01">
        <route edges="24_20 20_14"/>
    </vehicle>
    <vehicle id="20_9.3" type="car" depart="36874.18">
        <route edges="20_14 14_9"/>
    </vehicle>
    <vehicle id="14_10.3" type="car" depart="36874.45">
        <route edges="14_9 9_10"/>
    </vehicle>
    <vehicle id="10_3.3" type="car" depart="36874.56">
        <route edges="10_7 7_3"/>
    </vehicle>
    <vehicle id="3_10.4" type="car" depart="36874.61">
        <route edges="3_7 7_10"/>
    </vehicle>
    <vehicle id="7_9.4" type="car" depart="36876.64">
        <route edges="7_10 10_9"/>
    </vehicle>
    <vehicle id="10_14.4" type="car" depart="36877.16">
        <route edges="10_9 9_14"/>
    </vehicle>
    <vehicle id="9_20.4" type="car" depart="36878.24">
        <route edges="9_14 14_20"/>
    </vehicle>
    <vehicle id="9_7.4" type="car" depart="36878.40">
        <route edges="9_10 10_7"/>
    </vehicle>
    <vehicle id="7_2.4" type="car" depart="36879.72">
        <route edges="7_3 3_2"/>
    </vehicle>
    <vehicle id="14_24.4" type="car" depart="36880.85">
        <route edges="14_20 20_24"/>
    </vehicle>
    <vehicle id="2_7.5" type="car" depart="36882.45">
        <route edges="2_3 3_7"/>
    </vehicle>
    <vehicle id="3_10.5" type="car" depart="36883.27">
        <route edges="3_7 7_10"/>
    </vehicle>
    <vehicle id="24_14.4" type="car" depart="36885.35">
        <route edges="24_20 20_14"/>
    </vehicle>
    <vehicle id="20_9.4" type="car" depart="36885.57">
        <route edges="20_14 14_9"/>
    </vehicle>
    <vehicle id="7_9.5" type="car" depart="36885.80">
        <route edges="7_10 10_9"/>
    </vehicle>
    <vehicle id="14_10.4" type="car" depart="36885.93">
        <route edges="14_9 9_10"/>
    </vehicle>
    <vehicle id="10_3.4" type="car" depart="36886.08">
        <route edges="10_7 7_3"/>
    </vehicle>
    <vehicle id="10_14.5" type="car" depart="36886.45">
        <route edges="10_9 9_14"/>
    </vehicle>
    <vehicle id="9_20.5" type="car" depart="36887.81">
        <route edges="9_14 14_20"/>
    </vehicle>
    <vehicle id="9_7.5" type="car" depart="36888.00">
        <route edges="9_10 10_7"/>
    </vehicle>
    <vehicle id="7_2.5" type="car" depart="36889.66">
        <route edges="7_3 3_2"/>
    </vehicle>
    <vehicle id="2_7.6" type="car" depart="36890.94">
        <route edges="2_3 3_7"/>
    </vehicle>
    <vehicle id="14_24.5" type="car" depart="36891.06">
        <route edges="14_20 20_24"/>
    </vehicle>
    <vehicle id="3_10.6" type="car" depart="36891.92">
        <route edges="3_7 7_10"/>
    </vehicle>
    <vehicle id="7_9.6" type="car" depart="36894.96">
        <route edges="7_10 10_9"/>
    </vehicle>
    <vehicle id="10_14.6" type="car" depart="36895.74">
        <route edges="10_9 9_14"/>
    </vehicle>
    <vehicle id="24_14.5" type="car" depart="36896.69">
        <route edges="24_20 20_14"/>
    </vehicle>
    <vehicle id="20_9.5" type="car" depart="36896.96">
        <route edges="20_14 14_9"/>
    </vehicle>
    <vehicle id="9_20.6" type="car" depart="36897.37">
        <route edges="9_14 14_20"/>
    </vehicle>
    <vehicle id="14_10.5" type="car" depart="36897.42">
        <route edges="14_9 9_10"/>
    </vehicle>
    <vehicle id="10_3.5" type="car" depart="36897.60">
        <route edges="10_7 7_3"/>
    </vehicle>
    <vehicle id="17_10.1" type="car" depart="36897.60">
        <route edges="17_9 9_10"/>
    </vehicle>
    <vehicle id="22_14.1" type="car" depart="36897.60">
        <route edges="22_20 20_14"/>
    </vehicle>
    <vehicle id="9_7.6" type="car" depart="36897.60">
        <route edges="9_10 10_7"/>
    </vehicle>
    <vehicle id="2_7.7" type="car" depart="36899.43">
        <route edges="2_3 3_7"/>
    </vehicle>
    <vehicle id="7_2.6" type="car" depart="36899.59">
        <route edges="7_3 3_2"/>
    </vehicle>
    <vehicle id="8_3.1" type="car" depart="36900.00">
        <route edges="8_7 7_3"/>
    </vehicle>
    <vehicle id="3_10.7" type="car" depart="36900.57">
        <route edges="3_7 7_10"/>
    </vehicle>
    <vehicle id="14_24.6" type="car" depart="36901.27">
        <route edges="14_20 20_24"/>
    </vehicle>
    <vehicle id="7_9.7" type="car" depart="36904.12">
        <route edges="7_10 10_9"/>
    </vehicle>
    <vehicle id="10_14.7" type="car" depart="36905.03">
        <route edges="10_9 9_14"/>
    </vehicle>
    <vehicle id="9_20.7" type="car" depart="36906.93">
        <route edges="9_14 14_20"/>
    </vehicle>
    <vehicle id="9_7.7" type="car" depart="36907.20">
        <route edges="9_10 10_7"/>
    </vehicle>
    <vehicle id="2_7.8" type="car" depart="36907.92">
        <route edges="2_3 3_7"/>
    </vehicle>
    <vehicle id="24_14.6" type="car" depart="36908.03">
        <route edges="24_20 20_14"/>
    </vehicle>
    <vehicle id="20_9.6" type="car" depart="36908.35">
        <route edges="20_14 14_9"/>
    </vehicle>
    <vehicle id="14_10.6" type="car" depart="36908.90">
        <route edges="14_9 9_10"/>
    </vehicle>
    <vehicle id="10_3.6" type="car" depart="36909.12">
        <route edges="10_7 7_3"/>
    </vehicle>
    <vehicle id="3_10.8" type="car" depart="36909.22">
        <route edges="3_7 7_10"/>
    </vehicle>
    <vehicle id="7_2.7" type="car" depart="36909.52">
        <route edges="7_3 3_2"/>
    </vehicle>
    <vehicle id="14_24.7" type="car" depart="36911.48">
        <route edges="14_20 20_24"/>
    </vehicle>
    <vehicle id="7_9.8" type="car" depart="36913.28">
        <route edges="7_10 10_9"/>
    </vehicle>
    <vehicle id="10_14.8" type="car" depart="36914.32">
        <route edges="10_9 9_14"/>
    </vehicle>
    <vehicle id="2_7.9" type="car" depart="36916.41">
        <route edges="2_3 3_7"/>
    </vehicle>
    <vehicle id="9_20.8" type="car" depart="36916.49">
        <route edges="9_14 14_20"/>
    </vehicle>
    <vehicle id="9_7.8" type="car" depart="36916.80">
        <route edges="9_10 10_7"/>
    </vehicle>
    <vehicle id="3_10.9" type="car" depart="36917.88">
        <route edges="3_7 7_10"/>
    </vehicle>
    <vehicle id="24_14.7" type="car" depart="36919.37">
        <route edges="24_20 20_14"/>
    </vehicle>
    <vehicle id="7_2.8" type="car" depart="36919.45">
        <route edges="7_3 3_2"/>
    </vehicle>
    <vehicle id="20_9.7" type="car" depart="36919.74">
        <route edges="20_14 14_9"/>
    </vehicle>
    <vehicle id="14_10.7" type="car" depart="36920.38">
        <route edges="14_9 9_10"/>
    </vehicle>
    <vehicle id="10_3.7" type="car" depart="36920.64">
        <route edges="10_7 7_3"/>
    </vehicle>
    <vehicle id="14_17.1" type="car" depart="36920.90">
        <route edges="14_9 9_17"/>
    </vehicle>
    <vehicle id="14_24.8" type="car" depart="36921.70">
        <route edges="14_20 20_24"/>
    </vehicle>
    <vehicle id="7_9.9" type="car" depart="36922.44">
        <route edges="7_10 10_9"/>
    </vehicle>
    <vehicle id="10_14.9" type="car" depart="36923.61">
        <route edges="10_9 9_14"/>
    </vehicle>
    <vehicle id="2_7.10" type="car" depart="36924.90">
        <route edges="2_3 3_7"/>
    </vehicle>
    <vehicle id="9_20.9" type="car" depart="36926.05">
        <route edges="9_14 14_20"/>
    </vehicle>
    <vehicle id="9_7.9" type="car" depart="36926.40">
        <route edges="9_10 10_7"/>
    </vehicle>
    <vehicle id="3_10.10" type="car" depart="36926.53">
        <route edges="3_7 7_10"/>
    </vehicle>
    <vehicle id="18_14.1" type="car" depart="36928.89">
        <route edges="18_9 9_14"/>
    </vehicle>
    <vehicle id="7_2.9" type="car" depart="36929.38">
        <route edges="7_3 3_2"/>
    </vehicle>
    <vehicle id="15_9.1" type="car" depart="36930.00">
        <route edges="15_14 14_9"/>
    </vehicle>
    <vehicle id="24_14.8" type="car" depart="36930.70">
        <route edges="24_20 20_14"/>
    </vehicle>
    <vehicle id="20_9.8" type="car" depart="36931.14">
        <route edges="20_14 14_9"/>
    </vehicle>
    <vehicle id="7_9.10" type="car" depart="36931.60">
        <route edges="7_10 10_9"/>
    </vehicle>
    <vehicle id="14_10.8" type="car" depart="36931.86">
        <route edges="14_9 9_10"/>
    </vehicle>
    <vehicle id="14_24.9" type="car" depart="36931.91">
        <route edges="14_20 20_24"/>
    </vehicle>
    <vehicle id="10_3.8" type="car" depart="36932.16">
        <route edges="10_7 7_3"/>
    </vehicle>
    <vehicle id="10_14.10" type="car" depart="36932.90">
        <route edges="10_9 9_14"/>
    </vehicle>
    <vehicle id="2_7.11" type="car" depart="36933.39">
        <route edges="2_3 3_7"/>
    </vehicle>
    <vehicle id="3_10.11" type="car" depart="36935.18">
        <route edges="3_7 7_10"/>
    </vehicle>
    <vehicle id="9_20.10" type="car" depart="36935.61">
        <route edges="9_14 14_20"/>
    </vehicle>
    <vehicle id="10_8.1" type="car" depart="36936.00">
        <route edges="10_7 7_8"/>
    </vehicle>
    <vehicle id="14_22.1" type="car" depart="36936.00">
        <route edges="14_20 20_22"/>
    </vehicle>
    <vehicle id="9_7.10" type="car" depart="36936.00">
        <route edges="9_10 10_7"/>
    </vehicle>
    <vehicle id="7_2.10" type="car" depart="36939.31">
        <route edges="7_3 3_2"/>
    </vehicle>
    <vehicle id="10_18.1" type="car" depart="36940.00">
        <route edges="10_9 9_18"/>
    </vehicle>
    <vehicle id="7_9.11" type="car" depart="36940.76">
        <route edges="7_10 10_9"/>
    </vehicle>
    <vehicle id="2_7.12" type="car" depart="36941.88">
        <route edges="2_3 3_7"/>
    </vehicle>
    <vehicle id="24_14.9" type="car" depart="36942.04">
        <route edges="24_20 20_14"/>
    </vehicle>
    <vehicle id="14_24.10" type="car" depart="36942.12">
        <route edges="14_20 20_24"/>
    </vehicle>
    <vehicle id="10_14.11" type="car" depart="36942.19">
        <route edges="10_9 9_14"/>
    </vehicle>
    <vehicle id="20_9.9" type="car" depart="36942.53">
        <route edges="20_14 14_9"/>
    </vehicle>
    <vehicle id="14_10.9" type="car" depart="36943.35">
        <route edges="14_9 9_10"/>
    </vehicle>
    <vehicle id="10_3.9" type="car" depart="36943.68">
        <route edges="10_7 7_3"/>
    </vehicle>
    <vehicle id="3_10.12" type="car" depart="36943.84">
        <route edges="3_7 7_10"/>
    </vehicle>
    <vehicle id="9_20.11" type="car" depart="36945.17">
        <route edges="9_14 14_20"/>
    </vehicle>
    <vehicle id="9_7.11" type="car" depart="36945.60">
        <route edges="9_10 10_7"/>
    </vehicle>
    <vehicle id="7_2.11" type="car" depart="36949.24">
        <route edges="7_3 3_2"/>
    </vehicle>
    <vehicle id="7_9.12" type="car" depart="36949.92">
        <route edges="7_10 10_9"/>
    </vehicle>
    <vehicle id="2_7.13" type="car" depart="36950.37">
        <route edges="2_3 3_7"/>
    </vehicle>
    <vehicle id="10_14.12" type="car" depart="36951.48">
        <route edges="10_9 9_14"/>
    </vehicle>
    <vehicle id="14_24.11" type="car" depart="36952.33">
        <route edges="14_20 20_24"/>
    </vehicle>
    <vehicle id="3_10.13" type="car" depart="36952.49">
        <route edges="3_7 7_10"/>
    </vehicle>
    <vehicle id="24_14.10" type="car" depart="36953.38">
        <route edges="24_20 20_14"/>
    </vehicle>
    <vehicle id="20_9.10" type="car" depart="36953.92">
        <route edges="20_14 14_9"/>
    </vehicle>
    <vehicle id="9_20.12" type="car" depart="36954.73">
        <route edges="9_14 14_20"/>
    </vehicle>
    <vehicle id="14_10.10" type="car" depart="36954.83">
        <route edges="14_9 9_10"/>
    </vehicle>
    <vehicle id="10_3.10" type="car" depart="36955.20">
        <route edges="10_7 7_3"/>
    </vehicle>
    <vehicle id="17_10.2" type="car" depart="36955.20">
        <route edges="17_9 9_10"/>
    </vehicle>
    <vehicle id="22_14.2" type="car" depart="36955.20">
        <route edges="22_20 20_14"/>
    </vehicle>
    <vehicle id="9_7.12" type="car" depart="36955.20">
        <route edges="9_10 10_7"/>
    </vehicle>
    <vehicle id="2_7.14" type="car" depart="36958.86">
        <route edges="2_3 3_7"/>
    </vehicle>
    <vehicle id="7_9.13" type="car" depart="36959.08">
        <route edges="7_10 10_9"/>
    </vehicle>
    <vehicle id="7_2.12" type="car" depart="36959.17">
        <route edges="7_3 3_2"/>
    </vehicle>
    <vehicle id="8_3.2" type="car" depart="36960.00">
        <route edges="8_7 7_3"/>
    </vehicle>
    <vehicle id="10_14.13" type="car" depart="36960.77">
        <route edges="10_9 9_14"/>
    </vehicle>
    <vehicle id="3_10.14" type="car" depart="36961.14">
        <route edges="3_7 7_10"/>
    </vehicle>
    <vehicle id="2_5.1" type="car" depart="36962.03">
        <route edges="2_3 3_5"/>
    </vehicle>
    <vehicle id="14_24.12" type="car" depart="36962.54">
        <route edges="14_20 20_24"/>
    </vehicle>
    <vehicle id="9_20.13" type="car" depart="36964.29">
        <route edges="9_14 14_20"/>
    </vehicle>
    <vehicle id="24_14.11" type="car" depart="36964.72">
        <route edges="24_20 20_14"/>
    </vehicle>
    <vehicle id="9_7.13" type="car" depart="36964.80">
        <route edges="9_10 10_7"/>
    </vehicle>
    <vehicle id="20_9.11" type="car" depart="36965.31">
        <route edges="20_14 14_9"/>
    </vehicle>
    <vehicle id="14_10.11" type="car" depart="36966.31">
        <route edges="14_9 9_10"/>
    </vehicle>
    <vehicle id="10_17.1" type="car" depart="36966.32">
        <route edges="10_9 9_17"/>
    </vehicle>
    <vehicle id="10_3.11" type="car" depart="36966.72">
        <route edges="10_7 7_3"/>
    </vehicle>
    <vehicle id="2_7.15" type="car" depart="36967.35">
        <route edges="2_3 3_7"/>
    </vehicle>
    <vehicle id="7_9.14" type="car" depart="36968.24">
        <route edges="7_10 10_9"/>
    </vehicle>
    <vehicle id="5_7.1" type="car" depart="36968.57">
        <route edges="5_3 3_7"/>
    </vehicle>
    <vehicle id="7_2.13" type="car" depart="36969.10">
        <route edges="7_3 3_2"/>
    </vehicle>
    <vehicle id="3_10.15" type="car" depart="36969.80">
        <route edges="3_7 7_10"/>
    </vehicle>
    <vehicle id="10_14.14" type="car" depart="36970.06">
        <route edges="10_9 9_14"/>
    </vehicle>
    <vehicle id="14_24.13" type="car" depart="36972.76">
        <route edges="14_20 20_24"/>
    </vehicle>
    <vehicle id="9_20.14" type="car" depart="36973.85">
        <route edges="9_14 14_20"/>
    </vehicle>
    <vehicle id="9_7.14" type="car" depart="36974.40">
        <route edges="9_10 10_7"/>
    </vehicle>
    <vehicle id="2_7.16" type="car" depart="36975.84">
        <route edges="2_3 3_7"/>
    </vehicle>
    <vehicle id="24_14.12" type="car" depart="36976.06">
        <route edges="24_20 20_14"/>
    </vehicle>
    <vehicle id="20_9.12" type="car" depart="36976.70">
        <route edges="20_14 14_9"/>
    </vehicle>
    <vehicle id="7_9.15" type="car" depart="36977.40">
        <route edges="7_10 10_9"/>
    </vehicle>
    <vehicle id="14_10.12" type="car" depart="36977.80">
        <route edges="14_9 9_10"/>
    </vehicle>
    <vehicle id="10_3.12" type="car" depart="36978.24">
        <route edges="10_7 7_3"/>
    </vehicle>
    <vehicle id="3_10.16" type="car" depart="36978.45">
        <route edges="3_7 7_10"/>
    </vehicle>
    <vehicle id="17_14.1" type="car" depart="36978.46">
        <route edges="17_9 9_14"/>
    </vehicle>
    <vehicle id="18_10.1" type="car" depart="36978.46">
        <route edges="18_9 9_10"/>
    </vehicle>
    <vehicle id="7_5.1" type="car" depart="36978.46">
        <route edges="7_3 3_5"/>
    </vehicle>
    <vehicle id="7_2.14" type="car" depart="36979.03">
        <route edges="7_3 3_2"/>
    </vehicle>
    <vehicle id="10_14.15" type="car" depart="36979.35">
        <route edges="10_9 9_14"/>
    </vehicle>
    <vehicle id="14_24.14" type="car" depart="36982.97">
        <route edges="14_20 20_24"/>
    </vehicle>
    <vehicle id="9_20.15" type="car" depart="36983.42">
        <route edges="9_14 14_20"/>
    </vehicle>
    <vehicle id="9_7.15" type="car" depart="36984.00">
        <route edges="9_10 10_7"/>
    </vehicle>
    <vehicle id="2_7.17" type="car" depart="36984.33">
        <route edges="2_3 3_7"/>
    </vehicle>
    <vehicle id="7_9.16" type="car" depart="36986.56">
        <route edges="7_10 10_9"/>
    </vehicle>
    <vehicle id="3_10.17" type="car" depart="36987.10">
        <route edges="3_7 7_10"/>
    </vehicle>
    <vehicle id="24_14.13" type="car" depart="36987.39">
        <route edges="24_20 20_14"/>
    </vehicle>
    <vehicle id="20_9.13" type="car" depart="36988.10">
        <route edges="20_14 14_9"/>
    </vehicle>
    <vehicle id="10_14.16" type="car" depart="36988.64">
        <route edges="10_9 9_14"/>
    </vehicle>
    <vehicle id="7_2.15" type="car" depart="36988.97">
        <route edges="7_3 3_2"/>
    </vehicle>
    <vehicle id="14_10.13" type="car" depart="36989.28">
        <route edges="14_9 9_10"/>
    </vehicle>
    <vehicle id="10_3.13" type="car" depart="36989.76">
        <route edges="10_7 7_3"/>
    </vehicle>
    <vehicle id="2_7.18" type="car" depart="36992.82">
        <route edges="2_3 3_7"/>
    </vehicle>
    <vehicle id="9_20.16" type="car" depart="36992.98">
        <route edges="9_14 14_20"/>
    </vehicle>
    <vehicle id="14_24.15" type="car" depart="36993.18">
        <route edges="14_20 20_24"/>
    </vehicle>
    <vehicle id="9_7.16" type="car" depart="36993.60">
        <route edges="9_10 10_7"/>
    </vehicle>
    <vehicle id="7_9.17" type="car" depart="36995.72">
        <route edges="7_10 10_9"/>
    </vehicle>
    <vehicle id="3_10.18" type="car" depart="36995.75">
        <route edges="3_7 7_10"/>
    </vehicle>
    <vehicle id="10_14.17" type="car" depart="36997.93">
        <route edges="10_9 9_14"/>
    </vehicle>
    <vehicle id="24_14.14" type="car" depart="36998.73">
        <route edges="24_20 20_14"/>
    </vehicle>
    <vehicle id="7_2.16" type="car" depart="36998.90">
        <route edges="7_3 3_2"/>
    </vehicle>
    <vehicle id="20_9.14" type="car" depart="36999.49">
        <route edges="20_14 14_9"/>
    </vehicle>
    <vehicle id="14_10.14" type="car" depart="37000.76">
        <route edges="14_9 9_10"/>
    </vehicle>
    <vehicle id="10_3.14" type="car" depart="37001.28">
        <route edges="10_7 7_3"/>
    </vehicle>
    <vehicle id="2_7.19" type="car" depart="37001.31">
        <route edges="2_3 3_7"/>
    </vehicle>
    <vehicle id="14_17.2" type="car" depart="37001.80">
        <route edges="14_9 9_17"/>
    </vehicle>
    <vehicle id="9_20.17" type="car" depart="37002.54">
        <route edges="9_14 14_20"/>
    </vehicle>
    <vehicle id="9_7.17" type="car" depart="37003.20">
        <route edges="9_10 10_7"/>
    </vehicle>
    <vehicle id="14_24.16" type="car" depart="37003.39">
        <route edges="14_20 20_24"/>
    </vehicle>
    <vehicle id="3_10.19" type="car" depart="37004.41">
        <route edges="3_7 7_10"/>
    </vehicle>
    <vehicle id="7_9.18" type="car" depart="37004.88">
        <route edges="7_10 10_9"/>
    </vehicle>
    <vehicle id="10_14.18" type="car" depart="37007.22">
        <route edges="10_9 9_14"/>
    </vehicle>
    <vehicle id="7_2.17" type="car" depart="37008.83">
        <route edges="7_3 3_2"/>
    </vehicle>
    <vehicle id="2_7.20" type="car" depart="37009.80">
        <route edges="2_3 3_7"/>
    </vehicle>
    <vehicle id="24_14.15" type="car" depart="37010.07">
        <route edges="24_20 20_14"/>
    </vehicle>
    <vehicle id="20_9.15" type="car" depart="37010.88">
        <route edges="20_14 14_9"/>
    </vehicle>
    <vehicle id="9_20.18" type="car" depart="37012.10">
        <route edges="9_14 14_20"/>
    </vehicle>
    <vehicle id="14_10.15" type="car" depart="37012.25">
        <route edges="14_9 9_10"/>
    </vehicle>
    <vehicle id="10_3.15" type="car" depart="37012.80">