<?xml version='1.0' encoding='utf-8'?>
<net xmlns:xsi="http://www.w3.org/2001/XMLSchema-instance" version="1.20" junctionCornerDetail="5" limitTurnSpeed="5.50" xsi:noNamespaceSchemaLocation="http://sumo.dlr.de/xsd/net_file.xsd">

    <location netOffset="-423965.19,-3856607.04" convBoundary="0.00,0.00,4876.22,1737.69" origBoundary="-111.831707,34.848944,-111.778506,34.864856" projParameter="+proj=utm +zone=12 +ellps=WGS84 +datum=WGS84 +units=m +no_defs" />

    <edge id=":1_0" function="internal">
        <lane id=":1_0_0" index="0" speed="3.65" length="4.67" shape="4435.28,1446.11 4435.77,1444.75 4436.45,1444.17 4437.32,1444.37 4438.39,1445.34" />
    </edge>
    <edge id=":10_0" function="internal">
        <lane id=":10_0_0" index="0" speed="9.79" length="18.68" shape="3772.59,1602.85 3767.30,1604.33 3763.50,1606.79 3761.17,1610.23 3760.32,1614.66" />
    </edge>
    <edge id=":10_1" function="internal">
        <lane id=":10_1_0" index="0" speed="15.65" length="25.11" shape="3772.59,1602.85 3765.31,1604.54 3760.47,1606.37 3755.61,1608.04 3748.28,1609.28" />
        <lane id=":10_1_1" index="1" speed="15.65" length="25.11" shape="3772.07,1599.69 3764.86,1601.37 3760.06,1603.19 3755.24,1604.86 3747.97,1606.09" />
    </edge>
    <edge id=":10_3" function="internal">
        <lane id=":10_3_0" index="0" speed="9.60" length="10.79" shape="3771.55,1596.53 3765.42,1596.49 3761.36,1594.19" />
    </edge>
    <edge id=":10_14" function="internal">
        <lane id=":10_14_0" index="0" speed="9.60" length="13.05" shape="3761.36,1594.19 3761.09,1594.04 3758.58,1589.20 3757.87,1581.95" />
    </edge>
    <edge id=":10_4" function="internal">
        <lane id=":10_4_0" index="0" speed="6.14" length="9.06" shape="3764.27,1582.10 3764.58,1584.63 3765.63,1586.30 3767.43,1587.11 3769.98,1587.06" />
    </edge>
    <edge id=":10_5" function="internal">
        <lane id=":10_5_0" index="0" speed="13.41" length="32.81" shape="3764.27,1582.10 3763.57,1590.70 3762.25,1600.25 3760.96,1608.87 3760.32,1614.66" />
    </edge>
    <edge id=":10_6" function="internal">
        <lane id=":10_6_0" index="0" speed="10.93" length="8.93" shape="3761.07,1582.02 3760.07,1589.27 3759.36,1590.72" />
    </edge>
    <edge id=":10_15" function="internal">
        <lane id=":10_15_0" index="0" speed="10.93" length="15.93" shape="3759.36,1590.72 3757.45,1594.64 3753.21,1598.12 3747.34,1599.72" />
    </edge>
    <edge id=":10_7" function="internal">
        <lane id=":10_7_0" index="0" speed="8.73" length="15.52" shape="3746.40,1590.17 3751.36,1589.24 3754.92,1587.56 3757.09,1585.13 3757.87,1581.95" />
    </edge>
    <edge id=":10_8" function="internal">
        <lane id=":10_8_0" index="0" speed="15.65" length="23.89" shape="3746.40,1590.17 3769.98,1587.06" />
        <lane id=":10_8_1" index="1" speed="15.65" length="23.89" shape="3746.72,1593.35 3770.50,1590.22" />
    </edge>
    <edge id=":10_10" function="internal">
        <lane id=":10_10_0" index="0" speed="10.24" length="12.25" shape="3747.03,1596.54 3753.01,1597.16 3757.22,1600.39 3757.58,1601.26" />
    </edge>
    <edge id=":10_16" function="internal">
        <lane id=":10_16_0" index="0" speed="10.24" length="13.84" shape="3757.58,1601.26 3759.66,1606.22 3760.32,1614.66" />
    </edge>
    <edge id=":10_11" function="internal">
        <lane id=":10_11_0" index="0" speed="6.26" length="9.04" shape="3753.93,1614.51 3753.62,1612.01 3752.58,1610.30 3750.80,1609.39 3748.28,1609.28" />
    </edge>
    <edge id=":10_12" function="internal">
        <lane id=":10_12_0" index="0" speed="13.41" length="32.82" shape="3753.93,1614.51 3754.62,1605.91 3755.94,1596.35 3757.24,1587.74 3757.87,1581.95" />
    </edge>
    <edge id=":10_13" function="internal">
        <lane id=":10_13_0" index="0" speed="11.84" length="11.13" shape="3757.12,1614.58 3758.15,1606.14 3759.17,1603.72" />
    </edge>
    <edge id=":10_17" function="internal">
        <lane id=":10_17_0" index="0" speed="11.84" length="16.60" shape="3759.17,1603.72 3760.81,1599.79 3765.10,1595.53 3771.03,1593.37" />
    </edge>
    <edge id=":11_0" function="internal">
        <lane id=":11_0_0" index="0" speed="3.65" length="4.67" shape="3758.68,1687.20 3757.86,1688.38 3757.05,1688.77 3756.26,1688.35 3755.48,1687.13" />
    </edge>
    <edge id=":12_0" function="internal">
        <lane id=":12_0_0" index="0" speed="3.65" length="4.67" shape="3759.35,1518.60 3760.18,1517.42 3760.99,1517.03 3761.78,1517.45 3762.55,1518.67" />
    </edge>
    <edge id=":13_0" function="internal">
        <lane id=":13_0_0" index="0" speed="3.65" length="4.67" shape="238.06,265.75 238.02,267.20 237.55,267.96 236.66,268.05 235.35,267.46" />
    </edge>
    <edge id=":14_0" function="internal">
        <lane id=":14_0_0" index="0" speed="6.47" length="9.58" shape="2932.58,1595.09 2929.77,1595.06 2927.73,1595.86 2926.47,1597.50 2925.97,1599.96" />
    </edge>
    <edge id=":14_1" function="internal">
        <lane id=":14_1_0" index="0" speed="15.65" length="21.89" shape="2933.02,1591.92 2926.58,1591.53 2922.12,1592.04 2917.67,1592.56 2911.22,1592.22" />
        <lane id=":14_1_1" index="1" speed="15.65" length="21.89" shape="2933.46,1588.75 2927.01,1588.36 2922.55,1588.87 2918.09,1589.39 2911.64,1589.04" />
    </edge>
    <edge id=":14_3" function="internal">
        <lane id=":14_3_0" index="0" speed="10.58" length="11.31" shape="2933.89,1585.58 2929.34,1583.83 2926.18,1580.07 2925.74,1578.62" />
    </edge>
    <edge id=":14_14" function="internal">
        <lane id=":14_14_0" index="0" speed="10.58" length="12.37" shape="2925.74,1578.62 2924.43,1574.27 2924.08,1566.45" />
    </edge>
    <edge id=":14_4" function="internal">
        <lane id=":14_4_0" index="0" speed="6.74" length="9.02" shape="2930.47,1566.70 2930.71,1569.13 2931.66,1570.98 2933.30,1572.23 2935.65,1572.90" />
    </edge>
    <edge id=":14_5" function="internal">
        <lane id=":14_5_0" index="0" speed="13.41" length="33.57" shape="2930.47,1566.70 2929.63,1575.41 2928.14,1585.21 2926.70,1594.06 2925.97,1599.96" />
    </edge>
    <edge id=":14_6" function="internal">
        <lane id=":14_6_0" index="0" speed="10.20" length="9.74" shape="2927.27,1566.58 2926.08,1574.32 2925.17,1575.99" />
    </edge>
    <edge id=":14_15" function="internal">
        <lane id=":14_15_0" index="0" speed="10.20" length="15.64" shape="2925.17,1575.99 2923.21,1579.59 2918.68,1582.38 2912.47,1582.70" />
    </edge>
    <edge id=":14_7" function="internal">
        <lane id=":14_7_0" index="0" speed="7.79" length="14.33" shape="2913.72,1573.18 2918.13,1573.25 2921.33,1572.16 2923.31,1569.89 2924.08,1566.45" />
    </edge>
    <edge id=":14_8" function="internal">
        <lane id=":14_8_0" index="0" speed="15.65" length="22.00" shape="2913.72,1573.18 2920.21,1573.53 2924.69,1573.01 2929.17,1572.51 2935.65,1572.90" />
        <lane id=":14_8_1" index="1" speed="15.65" length="22.00" shape="2913.30,1576.35 2919.78,1576.70 2924.26,1576.18 2928.74,1575.68 2935.21,1576.07" />
    </edge>
    <edge id=":14_10" function="internal">
        <lane id=":14_10_0" index="0" speed="11.25" length="12.78" shape="2912.89,1579.53 2918.88,1581.48 2923.06,1585.54 2923.29,1586.15" />
    </edge>
    <edge id=":14_16" function="internal">
        <lane id=":14_16_0" index="0" speed="11.25" length="14.23" shape="2923.29,1586.15 2925.42,1591.70 2925.97,1599.96" />
    </edge>
    <edge id=":14_11" function="internal">
        <lane id=":14_11_0" index="0" speed="7.06" length="10.05" shape="2916.38,1599.60 2916.15,1596.63 2915.22,1594.42 2913.57,1592.94 2911.22,1592.22" />
    </edge>
    <edge id=":14_12" function="internal">
        <lane id=":14_12_0" index="0" speed="13.41" length="33.60" shape="2919.57,1599.72 2920.49,1588.90 2921.97,1579.34 2923.37,1571.65 2924.08,1566.45" />
    </edge>
    <edge id=":14_13" function="internal">
        <lane id=":14_13_0" index="0" speed="9.87" length="11.70" shape="2922.77,1599.84 2923.77,1591.65 2925.05,1588.45" />
    </edge>
    <edge id=":14_17" function="internal">
        <lane id=":14_17_0" index="0" speed="9.87" length="12.11" shape="2925.05,1588.45 2926.03,1586.01 2929.55,1582.93 2934.33,1582.41" />
    </edge>
    <edge id=":15_0" function="internal">
        <lane id=":15_0_0" index="0" speed="3.65" length="4.67" shape="2922.83,1681.85 2921.98,1683.02 2921.17,1683.39 2920.38,1682.96 2919.63,1681.73" />
    </edge>
    <edge id=":16_0" function="internal">
        <lane id=":16_0_0" index="0" speed="3.65" length="4.67" shape="2928.02,1467.45 2928.86,1466.29 2929.68,1465.92 2930.46,1466.35 2931.22,1467.58" />
    </edge>
    <edge id=":17_0" function="internal">
        <lane id=":17_0_0" index="0" speed="3.65" length="4.67" shape="3336.14,1737.62 3335.39,1738.85 3334.61,1739.29 3333.79,1738.92 3332.94,1737.75" />
    </edge>
    <edge id=":18_0" function="internal">
        <lane id=":18_0_0" index="0" speed="3.65" length="4.67" shape="3330.41,1490.27 3331.22,1489.08 3332.02,1488.68 3332.82,1489.09 3333.61,1490.30" />
    </edge>
    <edge id=":2_0" function="internal">
        <lane id=":2_0_0" index="0" speed="3.65" length="4.67" shape="4876.90,1562.13 4877.65,1563.36 4877.67,1564.26 4876.97,1564.81 4875.54,1565.02" />
    </edge>
    <edge id=":20_0" function="internal">
        <lane id=":20_0_0" index="0" speed="7.62" length="12.30" shape="2484.45,1536.21 2480.40,1536.04 2477.37,1536.72 2475.35,1538.26 2474.33,1540.66" />
    </edge>
    <edge id=":20_1" function="internal">
        <lane id=":20_1_0" index="0" speed="14.53" length="21.40" shape="2484.87,1533.03 2478.54,1532.70 2474.15,1533.19 2469.78,1533.61 2463.48,1533.07" />
        <lane id=":20_1_1" index="1" speed="14.53" length="21.40" shape="2485.28,1529.86 2478.99,1529.53 2474.63,1530.03 2470.28,1530.45 2464.01,1529.91" />
    </edge>
    <edge id=":20_3" function="internal">
        <lane id=":20_3_0" index="0" speed="9.91" length="10.00" shape="2485.70,1526.69 2480.68,1525.06 2477.34,1521.72" />
    </edge>
    <edge id=":20_14" function="internal">
        <lane id=":20_14_0" index="0" speed="9.91" length="12.08" shape="2477.34,1521.72 2475.69,1516.67 2475.74,1509.90" />
    </edge>
    <edge id=":20_4" function="internal">
        <lane id=":20_4_0" index="0" speed="6.61" length="9.25" shape="2482.09,1510.64 2482.14,1513.22 2482.97,1515.17 2484.57,1516.49 2486.95,1517.17" />
    </edge>
    <edge id=":20_5" function="internal">
        <lane id=":20_5_0" index="0" speed="13.41" length="31.03" shape="2482.09,1510.64 2480.52,1518.83 2478.11,1527.53 2475.76,1535.29 2474.33,1540.66" />
    </edge>
    <edge id=":20_6" function="internal">
        <lane id=":20_6_0" index="0" speed="9.68" length="9.34" shape="2478.91,1510.27 2477.38,1516.86 2476.00,1519.03" />
    </edge>
    <edge id=":20_15" function="internal">
        <lane id=":20_15_0" index="0" speed="9.68" length="12.74" shape="2476.00,1519.03 2474.56,1521.28 2470.46,1523.53 2465.07,1523.60" />
    </edge>
    <edge id=":20_7" function="internal">
        <lane id=":20_7_0" index="0" speed="7.11" length="11.40" shape="2466.66,1514.13 2470.38,1514.40 2473.14,1513.78 2474.92,1512.28 2475.74,1509.90" />
    </edge>
    <edge id=":20_8" function="internal">
        <lane id=":20_8_0" index="0" speed="15.65" length="20.57" shape="2466.66,1514.13 2486.95,1517.17" />
        <lane id=":20_8_1" index="1" speed="15.65" length="20.57" shape="2466.13,1517.29 2486.53,1520.34" />
    </edge>
    <edge id=":20_10" function="internal">
        <lane id=":20_10_0" index="0" speed="10.39" length="11.54" shape="2465.60,1520.44 2470.65,1522.46 2473.78,1526.50 2473.98,1527.48" />
    </edge>
    <edge id=":20_16" function="internal">
        <lane id=":20_16_0" index="0" speed="10.39" length="13.31" shape="2473.98,1527.48 2475.01,1532.57 2474.33,1540.66" />
    </edge>
    <edge id=":20_11" function="internal">
        <lane id=":20_11_0" index="0" speed="6.48" length="9.03" shape="2468.03,1539.53 2468.12,1537.05 2467.39,1535.15 2465.85,1533.82 2463.48,1533.07" />
    </edge>
    <edge id=":20_12" function="internal">
        <lane id=":20_12_0" index="0" speed="13.41" length="30.61" shape="2468.03,1539.53 2475.74,1509.90" />
    </edge>
    <edge id=":20_13" function="internal">
        <lane id=":20_13_0" index="0" speed="10.62" length="10.87" shape="2471.18,1540.09 2473.33,1532.26 2474.74,1529.90" />
    </edge>
    <edge id=":20_17" function="internal">
        <lane id=":20_17_0" index="0" speed="10.62" length="14.00" shape="2474.74,1529.90 2476.54,1526.89 2480.80,1523.98 2486.11,1523.52" />
    </edge>
    <edge id=":21_0" function="internal">
        <lane id=":21_0_0" index="0" speed="3.65" length="4.67" shape="2478.72,1484.24 2479.65,1483.14 2480.49,1482.83 2481.24,1483.32 2481.89,1484.61" />
    </edge>
    <edge id=":22_0" function="internal">
        <lane id=":22_0_0" index="0" speed="3.65" length="4.67" shape="2460.96,1615.28 2459.96,1616.32 2459.10,1616.58 2458.38,1616.04 2457.81,1614.72" />
    </edge>
    <edge id=":24_0" function="internal">
        <lane id=":24_0_0" index="0" speed="8.23" length="14.86" shape="1480.20,1368.18 1474.84,1367.64 1470.87,1368.03 1468.28,1369.36 1467.07,1371.63" />
    </edge>
    <edge id=":24_1" function="internal">
        <lane id=":24_1_0" index="0" speed="13.41" length="29.18" shape="1480.73,1365.03 1471.78,1363.94 1465.40,1363.12 1459.78,1360.80 1453.16,1355.23" />
        <lane id=":24_1_1" index="1" speed="13.41" length="29.18" shape="1481.26,1361.87 1472.89,1360.89 1466.90,1360.22 1461.63,1358.14 1455.43,1352.98" />
    </edge>
    <edge id=":24_3" function="internal">
        <lane id=":24_3_0" index="0" speed="9.50" length="11.33" shape="1481.79,1358.72 1475.47,1356.55 1472.42,1353.04" />
    </edge>
    <edge id=":24_14" function="internal">
        <lane id=":24_14_0" index="0" speed="9.50" length="13.77" shape="1472.42,1353.04 1472.12,1352.69 1471.74,1347.12 1474.34,1339.84" />
    </edge>
    <edge id=":24_4" function="internal">
        <lane id=":24_4_0" index="0" speed="5.96" length="9.09" shape="1480.06,1342.72 1479.23,1345.19 1479.50,1347.11 1480.89,1348.46 1483.37,1349.25" />
    </edge>
    <edge id=":24_5" function="internal">
        <lane id=":24_5_0" index="0" speed="13.41" length="31.73" shape="1480.06,1342.72 1476.27,1350.31 1472.23,1358.68 1468.86,1366.29 1467.07,1371.63" />
    </edge>
    <edge id=":24_6" function="internal">
        <lane id=":24_6_0" index="0" speed="9.03" length="7.88" shape="1477.20,1341.28 1473.05,1347.84 1472.96,1347.92" />
    </edge>
    <edge id=":24_15" function="internal">
        <lane id=":24_15_0" index="0" speed="9.03" length="15.04" shape="1472.96,1347.92 1468.80,1351.23 1464.44,1351.44 1459.98,1348.47" />
    </edge>
    <edge id=":24_7" function="internal">
        <lane id=":24_7_0" index="0" speed="6.09" length="9.71" shape="1466.80,1341.71 1468.91,1343.26 1470.87,1343.46 1472.68,1342.32 1474.34,1339.84" />
    </edge>
    <edge id=":24_8" function="internal">
        <lane id=":24_8_0" index="0" speed="14.53" length="19.75" shape="1466.80,1341.71 1470.83,1345.41 1474.12,1347.34 1477.90,1348.35 1483.37,1349.25" />
        <lane id=":24_8_1" index="1" speed="14.53" length="19.75" shape="1464.52,1343.97 1468.98,1348.07 1472.62,1350.25 1476.78,1351.39 1482.85,1352.40" />
    </edge>
    <edge id=":24_10" function="internal">
        <lane id=":24_10_0" index="0" speed="13.41" length="13.02" shape="1462.25,1346.22 1465.57,1350.86 1467.48,1356.64 1467.57,1357.86" />
    </edge>
    <edge id=":24_16" function="internal">
        <lane id=":24_16_0" index="0" speed="13.41" length="13.84" shape="1467.57,1357.86 1467.98,1363.56 1467.07,1371.63" />
    </edge>
    <edge id=":24_11" function="internal">
        <lane id=":24_11_0" index="0" speed="11.91" length="17.61" shape="1460.78,1370.45 1460.75,1367.12 1459.47,1363.48 1456.94,1359.51 1453.16,1355.23" />
    </edge>
    <edge id=":24_12" function="internal">
        <lane id=":24_12_0" index="0" speed="13.41" length="33.57" shape="1460.78,1370.45 1463.36,1362.15 1467.41,1353.14 1471.53,1345.13 1474.34,1339.84" />
    </edge>
    <edge id=":24_13" function="internal">
        <lane id=":24_13_0" index="0" speed="10.98" length="12.34" shape="1463.93,1371.04 1466.34,1363.32 1468.89,1359.92" />
    </edge>
    <edge id=":24_17" function="internal">
        <lane id=":24_17_0" index="0" speed="10.98" length="14.89" shape="1468.89,1359.92 1470.21,1358.17 1475.53,1355.58 1482.32,1355.56" />
    </edge>
    <edge id=":25_0" function="internal">
        <lane id=":25_0_0" index="0" speed="3.65" length="4.67" shape="1453.19,1445.80 1452.18,1446.84 1451.32,1447.08 1450.61,1446.54 1450.04,1445.22" />
    </edge>
    <edge id=":26_0" function="internal">
        <lane id=":26_0_0" index="0" speed="3.65" length="4.67" shape="1505.56,1277.68 1506.81,1276.97 1507.70,1276.97 1508.24,1277.69 1508.42,1279.12" />
    </edge>
    <edge id=":3_0" function="internal">
        <lane id=":3_0_0" index="0" speed="5.83" length="9.13" shape="4698.56,1492.50 4696.01,1491.71 4694.15,1492.06 4692.96,1493.54 4692.46,1496.16" />
    </edge>
    <edge id=":3_1" function="internal">
        <lane id=":3_1_0" index="0" speed="15.65" length="20.61" shape="4699.92,1489.60 4694.59,1487.13 4690.74,1485.77 4686.73,1485.24 4680.88,1485.26" />
        <lane id=":3_1_1" index="1" speed="15.65" length="20.61" shape="4701.28,1486.70 4695.54,1484.05 4691.41,1482.60 4687.08,1482.03 4680.79,1482.06" />
    </edge>
    <edge id=":3_3" function="internal">
        <lane id=":3_3_0" index="0" speed="11.81" length="6.45" shape="4702.64,1483.81 4697.35,1480.12" />
    </edge>
    <edge id=":3_14" function="internal">
        <lane id=":3_14_0" index="0" speed="11.81" length="20.57" shape="4697.35,1480.12 4694.14,1475.03 4693.03,1468.54 4694.01,1460.63" />
    </edge>
    <edge id=":3_4" function="internal">
        <lane id=":3_4_0" index="0" speed="9.77" length="18.22" shape="4700.24,1462.10 4699.49,1467.65 4700.09,1472.16 4702.05,1475.61 4705.36,1478.02" />
    </edge>
    <edge id=":3_5" function="internal">
        <lane id=":3_5_0" index="0" speed="13.41" length="34.96" shape="4700.24,1462.10 4698.09,1470.82 4695.59,1480.91 4693.46,1490.10 4692.46,1496.16" />
    </edge>
    <edge id=":3_6" function="internal">
        <lane id=":3_6_0" index="0" speed="11.85" length="8.48" shape="4697.13,1461.36 4694.59,1468.89 4694.29,1469.34" />
    </edge>
    <edge id=":3_15" function="internal">
        <lane id=":3_15_0" index="0" speed="11.85" length="17.46" shape="4694.29,1469.34 4691.00,1474.32 4686.37,1477.64 4680.70,1478.86" />
    </edge>
    <edge id=":3_7" function="internal">
        <lane id=":3_7_0" index="0" speed="9.28" length="15.58" shape="4680.35,1466.07 4685.88,1465.60 4690.00,1464.53 4692.71,1462.88 4694.01,1460.63" />
    </edge>
    <edge id=":3_8" function="internal">
        <lane id=":3_8_0" index="0" speed="14.53" length="26.15" shape="4680.43,1469.26 4688.63,1469.88 4694.46,1471.91 4699.51,1474.80 4705.36,1478.02" />
        <lane id=":3_8_1" index="1" speed="14.53" length="26.15" shape="4680.52,1472.46 4688.18,1473.04 4693.55,1474.96 4698.27,1477.75 4704.00,1480.91" />
    </edge>
    <edge id=":3_10" function="internal">
        <lane id=":3_10_0" index="0" speed="10.56" length="9.69" shape="4680.61,1475.66 4686.18,1476.81 4689.02,1479.62" />
    </edge>
    <edge id=":3_16" function="internal">
        <lane id=":3_16_0" index="0" speed="10.56" length="17.29" shape="4689.02,1479.62 4690.02,1480.61 4692.11,1487.06 4692.46,1496.16" />
    </edge>
    <edge id=":3_11" function="internal">
        <lane id=":3_11_0" index="0" speed="7.56" length="13.28" shape="4686.07,1495.85 4685.95,1491.15 4685.04,1487.83 4683.35,1485.86 4680.88,1485.26" />
    </edge>
    <edge id=":3_12" function="internal">
        <lane id=":3_12_0" index="0" speed="13.41" length="36.14" shape="4686.07,1495.85 4687.36,1486.81 4689.80,1476.32 4692.36,1466.78 4694.01,1460.63" />
    </edge>
    <edge id=":3_13" function="internal">
        <lane id=":3_13_0" index="0" speed="9.48" length="13.43" shape="4689.27,1496.00 4690.32,1488.01 4692.48,1483.10" />
    </edge>
    <edge id=":3_17" function="internal">
        <lane id=":3_17_0" index="0" speed="9.48" length="12.99" shape="4692.48,1483.10 4692.87,1482.20 4697.31,1479.52 4704.00,1480.91" />
    </edge>
    <edge id=":30_0" function="internal">
        <lane id=":30_0_0" index="0" speed="3.65" length="4.67" shape="-0.76,1.41 -1.44,0.13 -1.41,-0.76 -0.68,-1.27 0.76,-1.41" />
    </edge>
    <edge id=":31_0" function="internal">
        <lane id=":31_0_0" index="0" speed="6.79" length="9.17" shape="269.10,160.48 267.10,158.95 265.07,158.34 263.01,158.66 260.91,159.91" />
    </edge>
    <edge id=":31_1" function="internal">
        <lane id=":31_1_0" index="0" speed="13.41" length="21.58" shape="271.37,158.23 267.13,153.49 264.34,149.98 261.28,146.96 256.24,143.74" />
        <lane id=":31_1_1" index="1" speed="13.41" length="21.58" shape="273.64,155.97 269.15,151.01 266.11,147.32 262.87,144.19 257.76,140.93" />
    </edge>
    <edge id=":31_3" function="internal">
        <lane id=":31_3_0" index="0" speed="13.41" length="10.00" shape="275.91,153.72 273.05,149.40 271.88,144.73" />
    </edge>
    <edge id=":31_14" function="internal">
        <lane id=":31_14_0" index="0" speed="13.41" length="16.92" shape="271.88,144.73 271.61,143.66 271.62,136.51 273.06,127.96" />
    </edge>
    <edge id=":31_4" function="internal">
        <lane id=":31_4_0" index="0" speed="11.47" length="17.32" shape="282.41,130.14 281.26,136.20 280.93,141.02 281.42,144.61 282.73,146.96" />
    </edge>
    <edge id=":31_5" function="internal">
        <lane id=":31_5_0" index="0" speed="13.41" length="36.25" shape="279.29,129.41 276.08,139.46 271.74,147.78 266.58,154.55 260.91,159.91" />
    </edge>
    <edge id=":31_6" function="internal">
        <lane id=":31_6_0" index="0" speed="9.97" length="16.31" shape="276.18,128.68 273.64,136.47 269.98,141.48 268.16,142.07" />
    </edge>
    <edge id=":31_15" function="internal">
        <lane id=":31_15_0" index="0" speed="9.97" length="10.91" shape="268.16,142.07 264.81,143.16 257.76,140.93" />
    </edge>
    <edge id=":31_7" function="internal">
        <lane id=":31_7_0" index="0" speed="6.62" length="11.29" shape="263.84,129.66 267.36,131.14 270.06,131.35 271.97,130.29 273.06,127.96" />
    </edge>
    <edge id=":31_8" function="internal">
        <lane id=":31_8_0" index="0" speed="13.41" length="24.73" shape="262.32,132.48 268.92,136.00 273.35,138.62 277.38,141.79 282.73,146.96" />
        <lane id=":31_8_1" index="1" speed="13.41" length="24.73" shape="260.80,135.29 267.15,138.68 271.43,141.19 275.30,144.24 280.46,149.22" />
    </edge>
    <edge id=":31_10" function="internal">
        <lane id=":31_10_0" index="0" speed="9.18" length="6.64" shape="259.28,138.11 264.54,142.17" />
    </edge>
    <edge id=":31_16" function="internal">
        <lane id=":31_16_0" index="0" speed="9.18" length="18.11" shape="264.54,142.17 266.23,146.74 264.35,151.83 258.89,157.42" />
    </edge>
    <edge id=":31_11" function="internal">
        <lane id=":31_11_0" index="0" speed="6.34" length="11.10" shape="254.87,152.45 257.58,149.78 258.72,147.44 258.27,145.43 256.24,143.74" />
    </edge>
    <edge id=":31_12" function="internal">
        <lane id=":31_12_0" index="0" speed="13.41" length="30.77" shape="254.87,152.45 260.83,146.65 266.46,139.67 270.83,132.95 273.06,127.96" />
    </edge>
    <edge id=":31_13" function="internal">
        <lane id=":31_13_0" index="0" speed="10.61" length="12.41" shape="256.88,154.94 263.36,150.55 267.68,149.01" />
    </edge>
    <edge id=":31_17" function="internal">
        <lane id=":31_17_0" index="0" speed="10.61" length="11.37" shape="267.68,149.01 269.08,148.52 274.02,148.82 278.19,151.47" />
    </edge>
    <edge id=":32_0" function="internal">
        <lane id=":32_0_0" index="0" speed="3.65" length="4.67" shape="124.42,254.20 122.98,254.18 122.20,253.73 122.11,252.84 122.68,251.52" />
    </edge>
    <edge id=":33_0" function="internal">
        <lane id=":33_0_0" index="0" speed="3.65" length="4.67" shape="294.30,36.95 295.35,35.96 296.22,35.75 296.91,36.32 297.42,37.67" />
    </edge>
    <edge id=":4_0" function="internal">
        <lane id=":4_0_0" index="0" speed="3.65" length="4.67" shape="4689.72,1551.71 4688.87,1552.87 4688.05,1553.23 4687.27,1552.79 4686.53,1551.56" />
    </edge>
    <edge id=":5_0" function="internal">
        <lane id=":5_0_0" index="0" speed="3.65" length="4.67" shape="4714.14,1375.24 4715.20,1374.25 4716.07,1374.05 4716.76,1374.62 4717.26,1375.97" />
    </edge>
    <edge id=":6_0" function="internal">
        <lane id=":6_0_0" index="0" speed="6.48" length="9.03" shape="199.34,216.18 197.74,214.29 195.92,213.38 193.88,213.44 191.63,214.48" />
    </edge>
    <edge id=":6_1" function="internal">
        <lane id=":6_1_0" index="0" speed="9.00" length="16.58" shape="202.05,214.48 199.66,209.76 198.83,205.68 199.56,202.24 201.84,199.44" />
    </edge>
    <edge id=":6_2" function="internal">
        <lane id=":6_2_0" index="0" speed="6.91" length="9.38" shape="205.87,204.42 204.22,206.22 203.48,208.21 203.66,210.40 204.76,212.78" />
    </edge>
    <edge id=":6_3" function="internal">
        <lane id=":6_3_0" index="0" speed="13.41" length="17.28" shape="205.87,204.42 201.81,207.64 198.95,209.73 195.99,211.68 191.63,214.48" />
        <lane id=":6_3_1" index="1" speed="13.41" length="17.28" shape="203.85,201.93 199.88,205.09 197.07,207.13 194.17,209.05 189.89,211.79" />
    </edge>
    <edge id=":6_5" function="internal">
        <lane id=":6_5_0" index="0" speed="13.41" length="16.60" shape="186.41,206.42 190.52,203.78 193.31,201.95 196.01,199.98 199.83,196.95" />
        <lane id=":6_5_1" index="1" speed="13.41" length="16.60" shape="188.15,209.11 192.34,206.42 195.19,204.54 197.94,202.53 201.84,199.44" />
    </edge>
    <edge id=":6_7" function="internal">
        <lane id=":6_7_0" index="0" speed="9.24" length="19.46" shape="188.15,209.11 193.00,206.87 197.39,206.73 201.31,208.70 204.76,212.78" />
    </edge>
    <edge id=":7_0" function="internal">
        <lane id=":7_0_0" index="0" speed="6.20" length="9.05" shape="4441.58,1498.50 4441.20,1495.99 4440.10,1494.33 4438.28,1493.53 4435.75,1493.58" />
    </edge>
    <edge id=":7_1" function="internal">
        <lane id=":7_1_0" index="0" speed="13.41" length="30.33" shape="4441.58,1498.50 4441.59,1490.23 4441.60,1481.42 4441.39,1473.58 4440.76,1468.21" />
    </edge>
    <edge id=":7_2" function="internal">
        <lane id=":7_2_0" index="0" speed="9.59" length="4.85" shape="4444.78,1498.47 4445.11,1493.63" />
    </edge>
    <edge id=":7_14" function="internal">
        <lane id=":7_14_0" index="0" speed="9.59" length="15.69" shape="4445.11,1493.63 4445.26,1491.33 4446.83,1486.20 4449.49,1483.07 4453.23,1481.95" />
    </edge>
    <edge id=":7_3" function="internal">
        <lane id=":7_3_0" index="0" speed="6.86" length="10.01" shape="4453.50,1491.54 4451.07,1492.03 4449.34,1493.35 4448.31,1495.48 4447.98,1498.45" />
    </edge>
    <edge id=":7_4" function="internal">
        <lane id=":7_4_0" index="0" speed="15.65" length="18.11" shape="4453.50,1491.54 4448.20,1491.76 4444.58,1492.11 4440.98,1492.69 4435.75,1493.58" />
        <lane id=":7_4_1" index="1" speed="15.65" length="18.11" shape="4453.41,1488.34 4447.98,1488.57 4444.27,1488.92 4440.59,1489.51 4435.23,1490.42" />
    </edge>
    <edge id=":7_6" function="internal">
        <lane id=":7_6_0" index="0" speed="10.86" length="10.22" shape="4453.32,1485.15 4449.43,1484.17 4446.03,1481.03 4445.28,1479.64" />
    </edge>
    <edge id=":7_15" function="internal">
        <lane id=":7_15_0" index="0" speed="10.86" length="12.35" shape="4445.28,1479.64 4443.15,1475.70 4440.76,1468.21" />
    </edge>
    <edge id=":7_7" function="internal">
        <lane id=":7_7_0" index="0" speed="7.81" length="11.24" shape="4443.87,1467.44 4444.92,1469.67 4446.78,1471.23 4449.47,1472.12 4452.97,1472.35" />
    </edge>
    <edge id=":7_8" function="internal">
        <lane id=":7_8_0" index="0" speed="13.41" length="31.30" shape="4443.87,1467.44 4445.02,1473.63 4446.36,1482.89 4447.49,1492.18 4447.98,1498.45" />
    </edge>
    <edge id=":7_9" function="internal">
        <lane id=":7_9_0" index="0" speed="10.21" length="12.26" shape="4443.87,1467.44 4444.94,1475.28 4444.09,1479.54" />
    </edge>
    <edge id=":7_16" function="internal">
        <lane id=":7_16_0" index="0" speed="10.21" length="12.96" shape="4444.09,1479.54 4443.76,1481.19 4440.35,1485.19 4434.71,1487.27" />
    </edge>
    <edge id=":7_10" function="internal">
        <lane id=":7_10_0" index="0" speed="7.79" length="14.20" shape="4433.15,1477.79 4437.22,1476.60 4439.85,1474.61 4441.03,1471.81 4440.76,1468.21" />
    </edge>
    <edge id=":7_11" function="internal">
        <lane id=":7_11_0" index="0" speed="15.65" length="20.47" shape="4433.15,1477.79 4439.08,1476.28 4443.01,1474.55 4446.96,1473.09 4452.97,1472.35" />
        <lane id=":7_11_1" index="1" speed="15.65" length="20.47" shape="4433.67,1480.95 4439.47,1479.46 4443.31,1477.74 4447.18,1476.28 4453.06,1475.55" />
    </edge>
    <edge id=":7_13" function="internal">
        <lane id=":7_13_0" index="0" speed="9.63" length="10.35" shape="4434.19,1484.11 4440.17,1484.16 4443.98,1486.29" />
    </edge>
    <edge id=":7_17" function="internal">
        <lane id=":7_17_0" index="0" speed="9.63" length="13.17" shape="4443.98,1486.29 4444.47,1486.57 4447.07,1491.33 4447.98,1498.45" />
    </edge>
    <edge id=":8_0" function="internal">
        <lane id=":8_0_0" index="0" speed="3.65" length="4.67" shape="4448.33,1542.23 4447.53,1543.43 4446.74,1543.84 4445.93,1543.45 4445.13,1542.25" />
    </edge>
    <edge id=":9_0" function="internal">