<?xml version="1.0" ?>
<routes>
    <vType id="car" type="passenger"/>
    <flow id="5_7" from="5_3" to="3_7" number="56" type="car" begin="36840" end="44040"/>
    <flow id="5_4" from="5_3" to="3_4" number="1" type="car" begin="36840" end="44040"/>
    <flow id="4_2" from="4_3" to="3_2" number="12" type="car" begin="36840" end="44040"/>
    <flow id="7_4" from="7_3" to="3_4" number="3" type="car" begin="36840" end="44040"/>
    <flow id="7_2" from="7_3" to="3_2" number="725" type="car" begin="36840" end="44040"/>
    <flow id="7_5" from="7_3" to="3_5" number="52" type="car" begin="36840" end="44040"/>
    <flow id="2_5" from="2_3" to="3_5" number="59" type="car" begin="36840" end="44040"/>
    <flow id="2_7" from="2_3" to="3_7" number="848" type="car" begin="36840" end="44040"/>
    <flow id="2_4" from="2_3" to="3_4" number="20" type="car" begin="36840" end="44040"/>
    <flow id="8_3" from="8_7" to="7_3" number="120" type="car" begin="36840" end="44040"/>
    <flow id="10_8" from="10_7" to="7_8" number="75" type="car" begin="36840" end="44040"/>
    <flow id="10_3" from="10_7" to="7_3" number="625" type="car" begin="36840" end="44040"/>
    <flow id="3_10" from="3_7" to="7_10" number="832" type="car" begin="36840" end="44040"/>
    <flow id="18_14" from="18_9" to="9_14" number="81" type="car" begin="36840" end="44040"/>
    <flow id="18_17" from="18_9" to="9_17" number="39" type="car" begin="36840" end="44040"/>
    <flow id="18_10" from="18_9" to="9_10" number="52" type="car" begin="36840" end="44040"/>
    <flow id="17_10" from="17_9" to="9_10" number="125" type="car" begin="36840" end="44040"/>
    <flow id="17_18" from="17_9" to="9_18" number="24" type="car" begin="36840" end="44040"/>
    <flow id="17_14" from="17_9" to="9_14" number="52" type="car" begin="36840" end="44040"/>
    <flow id="14_17" from="14_9" to="9_17" number="89" type="car" begin="36840" end="44040"/>
    <flow id="14_10" from="14_9" to="9_10" number="627" type="car" begin="36840" end="44040"/>
    <flow id="14_18" from="14_9" to="9_18" number="28" type="car" begin="36840" end="44040"/>
    <flow id="10_18" from="10_9" to="9_18" number="72" type="car" begin="36840" end="44040"/>
    <flow id="10_14" from="10_9" to="9_14" number="775" type="car" begin="36840" end="44040"/>
    <flow id="10_17" from="10_9" to="9_17" number="57" type="car" begin="36840" end="44040"/>
    <flow id="12_9" from="12_10" to="10_9" number="39" type="car" begin="36840" end="44040"/>
    <flow id="12_11" from="12_10" to="10_11" number="3" type="car" begin="36840" end="44040"/>
    <flow id="11_7" from="11_10" to="10_7" number="33" type="car" begin="36840" end="44040"/>
    <flow id="11_12" from="11_10" to="10_12" number="3" type="car" begin="36840" end="44040"/>
    <flow id="9_11" from="9_10" to="10_11" number="36" type="car" begin="36840" end="44040"/>
    <flow id="9_7" from="9_10" to="10_7" number="750" type="car" begin="36840" end="44040"/>
    <flow id="7_12" from="7_10" to="10_12" number="25" type="car" begin="36840" end="44040"/>
    <flow id="7_9" from="7_10" to="10_9" number="786" type="car" begin="36840" end="44040"/>
    <flow id="16_20" from="16_14" to="14_20" number="30" type="car" begin="36840" end="44040"/>
    <flow id="16_15" from="16_14" to="14_15" number="10" type="car" begin="36840" end="44040"/>
    <flow id="15_9" from="15_14" to="14_9" number="80" type="car" begin="36840" end="44040"/>
    <flow id="15_16" from="15_14" to="14_16" number="9" type="car" begin="36840" end="44040"/>
    <flow id="15_20" from="15_14" to="14_20" number="14" type="car" begin="36840" end="44040"/>
    <flow id="20_15" from="20_14" to="14_15" number="30" type="car" begin="36840" end="44040"/>
    <flow id="20_9" from="20_14" to="14_9" number="632" type="car" begin="36840" end="44040"/>
    <flow id="9_16" from="9_14" to="14_16" number="21" type="car" begin="36840" end="44040"/>
    <flow id="9_20" from="9_14" to="14_20" number="753" type="car" begin="36840" end="44040"/>
    <flow id="9_15" from="9_14" to="14_15" number="32" type="car" begin="36840" end="44040"/>
    <flow id="21_24" from="21_20" to="20_24" number="10" type="car" begin="36840" end="44040"/>
    <flow id="21_22" from="21_20" to="20_22" number="5" type="car" begin="36840" end="44040"/>
    <flow id="22_14" from="22_20" to="20_14" number="125" type="car" begin="36840" end="44040"/>
    <flow id="22_21" from="22_20" to="20_21" number="5" type="car" begin="36840" end="44040"/>
    <flow id="24_22" from="24_20" to="20_22" number="40" type="car" begin="36840" end="44040"/>
    <flow id="24_14" from="24_20" to="20_14" number="635" type="car" begin="36840" end="44040"/>
    <flow id="14_21" from="14_20" to="20_21" number="20" type="car" begin="36840" end="44040"/>
    <flow id="14_24" from="14_20" to="20_24" number="705" type="car" begin="36840" end="44040"/>
    <flow id="14_22" from="14_20" to="20_22" number="75" type="car" begin="36840" end="44040"/>
</routes>
