<?xml version="1.0" ?>
<nodes>
    <node id="1" x="-112.16807815192239" y="33.52398556669289" type="traffic_light"/>
    <node id="2" x="-112.1775111892156" y="33.51677770890146"/>
    <node id="3" x="-112.17753744167157" y="33.537237151507014"/>
    <node id="4" x="-112.27303017816972" y="33.530736844691624"/>
    <node id="5" x="-112.17752103254219" y="33.525373705928594"/>
    <node id="6" x="-112.19401767201134" y="33.53855787473044"/>
    <node id="7" x="-112.18725676340706" y="33.67740067682639"/>
    <node id="8" x="-112.16874858527845" y="33.51309771503445"/>
    <node id="9" x="-112.18384149874917" y="33.539789949658186"/>
    <node id="10" x="-112.18262400450695" y="33.539776265547495"/>
    <node id="11" x="-112.1813441592525" y="33.5397625714124"/>
    <node id="12" x="-112.18011682083247" y="33.53974886295629"/>
    <node id="13" x="-112.17509917590098" y="33.539718638080295" type="traffic_light"/>
    <node id="14" x="-112.17759979622593" y="33.54210948424321"/>
    <node id="15" x="-112.17243497019689" y="33.53125448812318"/>
    <node id="16" x="-112.19075356446385" y="33.54571424498335"/>
    <node id="17" x="-112.19505281488229" y="33.54566974144436"/>
    <node id="18" x="-112.1686743778855" y="33.533092739703285"/>
    <node id="19" x="-112.17194558965353" y="33.538468163341456"/>
    <node id="26" x="-112.26613571266381" y="33.53353401396604"/>
    <node id="29" x="-112.22548578019418" y="33.63488811748002"/>
    <node id="32" x="-112.23442171778662" y="33.634950280674424"/>
    <node id="38" x="-112.22112294990556" y="33.63486774882289"/>
    <node id="40" x="-112.186339507592" y="33.54638516739557"/>
    <node id="42" x="-112.23808078340782" y="33.6386254051864"/>
    <node id="43" x="-112.22990121655964" y="33.63497426265514"/>
    <node id="46" x="-112.2254891571321" y="33.640977747418795"/>
    <node id="50" x="-112.26922781924063" y="33.50651264033815"/>
    <node id="51" x="-112.26899164231784" y="33.50652380729322"/>
    <node id="52" x="-112.2689864230441" y="33.507798922909224"/>
    <node id="53" x="-112.26922263241843" y="33.507815236793114"/>
    <node id="54" x="-112.26966948366092" y="33.50848543800341"/>
    <node id="55" x="-112.2686853426282" y="33.50848616616074"/>
    <node id="57" x="-112.16014384180406" y="33.52756545493289"/>
    <node id="58" x="-112.229903676048" y="33.639035848301766"/>
    <node id="59" x="-112.26967050322112" y="33.50944726695031"/>
    <node id="60" x="-112.26868635130074" y="33.50944799513404"/>
    <node id="61" x="-112.26915900494915" y="33.50969497400436"/>
    <node id="62" x="-112.26936611877514" y="33.510112529456286"/>
    <node id="63" x="-112.26904793036815" y="33.5101347496378"/>
    <node id="64" x="-112.26904357410218" y="33.5122287927937"/>
    <node id="65" x="-112.26925451352655" y="33.51315748889274"/>
    <node id="66" x="-112.26905114238883" y="33.51318512016548"/>
    <node id="67" x="-112.26975032871998" y="33.53520495140036"/>
    <node id="68" x="-112.26951407388148" y="33.53521611943228"/>
    <node id="69" x="-112.26974514906098" y="33.536507541823816"/>
    <node id="70" x="-112.26950886156916" y="33.53649122914473"/>
    <node id="71" x="-112.27019215244344" y="33.53717773778099"/>
    <node id="72" x="-112.26920768640232" y="33.53717847063927"/>
    <node id="76" x="-112.27019317890024" y="33.538139562250905"/>
    <node id="77" x="-112.26920870195605" y="33.53814029513575"/>
    <node id="78" x="-112.26968151338731" y="33.53838727059939"/>
    <node id="79" x="-112.2698886984623" y="33.53880482311964"/>
    <node id="80" x="-112.26957040511823" y="33.538827044718964"/>
    <node id="81" x="-112.26956606168041" y="33.540921078159094"/>
    <node id="82" x="-112.26977707710772" y="33.54184976893158"/>
    <node id="83" x="-112.26957363898292" y="33.54187740104801"/>
    <node id="84" x="-112.23925482769026" y="33.635643213453534"/>
    <node id="85" x="-112.23890325942587" y="33.63558293184464"/>
    <node id="86" x="-112.23885498944824" y="33.63700643483794"/>
    <node id="87" x="-112.23850343916854" y="33.63697912844498"/>
    <node id="88" x="-112.23906571820044" y="33.637663108949106"/>
    <node id="89" x="-112.23808011004289" y="33.63766359563751"/>
    <node id="90" x="-112.23912191179654" y="33.63814398591878"/>
    <node id="91" x="-112.23854697051051" y="33.63814427103987" type="traffic_light"/>
    <node id="92" x="-112.23799831225118" y="33.638144540634194"/>
    <node id="93" x="-112.23906640252267" y="33.63862491848038"/>
    <node id="94" x="-112.23838977123424" y="33.63885333977149"/>
    <node id="95" x="-112.23863321160803" y="33.63930664426729"/>
    <node id="96" x="-112.23827837627968" y="33.63929307901277"/>
    <node id="97" x="-112.23810244936485" y="33.64141464237259"/>
    <node id="98" x="-112.23832000925046" y="33.64243405341864"/>
    <node id="99" x="-112.23797500239876" y="33.642398498263894"/>
    <node id="101" x="-112.2211398745573" y="33.66841834959626" type="traffic_light"/>
    <node id="102" x="-112.20381947778266" y="33.66715916257063" type="traffic_light"/>
    <node id="103" x="-112.20378039084011" y="33.6683133374086" type="traffic_light"/>
    <node id="108" x="-112.18011685785676" y="33.54098274742569"/>
    <node id="110" x="-112.22550693732698" y="33.65525647326501"/>
    <node id="114" x="-112.1641157570746" y="33.51671103065453"/>
    <node id="117" x="-112.23382448878611" y="33.65114742004945"/>
    <node id="119" x="-112.23614431497016" y="33.65114634164054"/>
    <node id="120" x="-112.18995293252087" y="33.66106348589276"/>
    <node id="121" x="-112.23848637939392" y="33.65472313290407"/>
    <node id="122" x="-112.24150477313722" y="33.65276501623014"/>
    <node id="123" x="-112.23811926892199" y="33.65135149092756"/>
    <node id="124" x="-112.22982149346545" y="33.655254722928184"/>
    <node id="127" x="-112.18407083663205" y="33.66491116282698"/>
    <node id="128" x="-112.19032156272898" y="33.66491067307123"/>
    <node id="129" x="-112.15174505418891" y="33.52398049786504"/>
    <node id="131" x="-112.23078253454835" y="33.64172029554584"/>
    <node id="133" x="-112.18408087964916" y="33.66732941669058"/>
    <node id="134" x="-112.19021346707058" y="33.66732893860682"/>
    <node id="136" x="-112.1840941135222" y="33.66848358252364"/>
    <node id="137" x="-112.19022678284925" y="33.668483103766874"/>
    <node id="139" x="-112.18429801233991" y="33.670187340751376"/>
    <node id="140" x="-112.19037164383379" y="33.670186858022866"/>
    <node id="142" x="-112.18439348562642" y="33.67222086590274"/>
    <node id="143" x="-112.19048698010734" y="33.67222037638465"/>
    <node id="151" x="-112.31525159571358" y="33.53742161723327"/>
    <node id="152" x="-112.20836494999135" y="33.55728596820189"/>
    <node id="154" x="-112.20385700864057" y="33.55292857746274"/>
    <node id="155" x="-112.21170498529646" y="33.54549863043035"/>
    <node id="162" x="-112.26366794222153" y="33.54000471844857"/>
    <node id="168" x="-112.18480282754216" y="33.537459530810246"/>
    <node id="170" x="-112.25901125298188" y="33.539994130393765"/>
    <node id="171" x="-112.26613761941825" y="33.53540270268183"/>
    <node id="173" x="-112.20642928812686" y="33.559998774691515"/>
    <node id="178" x="-112.25505054669605" y="33.54028522124714"/>
    <node id="180" x="-112.18187226668987" y="33.535011134618756"/>
    <node id="181" x="-112.20217875691269" y="33.54915307849819"/>
    <node id="184" x="-112.2723774053731" y="33.53994064313577"/>
    <node id="190" x="-112.18566603406914" y="33.53910832091553"/>
    <node id="191" x="-112.25064194380096" y="33.53092796472742"/>
    <node id="192" x="-112.25353577127314" y="33.526839832474835"/>
    <node id="193" x="-112.25706959417803" y="33.52684860529821"/>
    <node id="195" x="-112.26319087159109" y="33.53543225716152"/>
    <node id="197" x="-112.2588495172848" y="33.53549289414846"/>
    <node id="198" x="-112.25502810691101" y="33.50778096176087"/>
    <node id="200" x="-112.18386754258616" y="33.5369292041199"/>
    <node id="206" x="-112.20092538003615" y="33.65980055393164"/>
    <node id="208" x="-112.20720667727836" y="33.66377283887779"/>
    <node id="209" x="-112.20096253325536" y="33.66350487551314"/>
    <node id="211" x="-112.20622518250242" y="33.66715862712664"/>
    <node id="212" x="-112.16011831129049" y="33.523973712416975" type="traffic_light"/>
    <node id="214" x="-112.18743490927514" y="33.53978971383008"/>
    <node id="215" x="-112.20568000272705" y="33.668312919089644"/>
    <node id="216" x="-112.20047085936221" y="33.66831399647137"/>
    <node id="217" x="-112.18384157868188" y="33.54088643051115"/>
    <node id="218" x="-112.20877715282046" y="33.67174719253897"/>
    <node id="219" x="-112.20262124540488" y="33.67174859647868"/>
    <node id="220" x="-112.18263367747927" y="33.53686055945759"/>
    <node id="225" x="-112.18134404827269" y="33.53724808449062"/>
    <node id="229" x="-112.18011674580127" y="33.537248116394395"/>
    <node id="235" x="-112.21949946736261" y="33.67429966715204"/>
    <node id="236" x="-112.22457006996237" y="33.67272322920597"/>
    <node id="239" x="-112.21792893511774" y="33.66841944126905"/>
    <node id="240" x="-112.22399258219772" y="33.66841730974378"/>
    <node id="242" x="-112.22404125869423" y="33.667263125024554"/>
    <node id="243" x="-112.21799083854341" y="33.667265254571134"/>
    <node id="245" x="-112.2230120558232" y="33.66000874293376"/>
    <node id="246" x="-112.21942351468084" y="33.6600100117045"/>
    <node id="248" x="-112.17511237074683" y="33.53724812057156"/>
    <node id="250" x="-112.22113929186935" y="33.667264183379615" type="traffic_light"/>
    <node id="251" x="-112.20072032534931" y="33.66715978334548"/>
    <node id="254" x="-112.20640814683017" y="33.555654089782806" type="traffic_light"/>
    <node id="255" x="-112.23244442219064" y="33.65114804094574"/>
    <node id="264" x="-112.23382654161031" y="33.65429940013757"/>
    <node id="267" x="-112.16011865122609" y="33.52227539906742"/>
    <node id="269" x="-112.23244646661075" y="33.654365973595866"/>
    <node id="273" x="-112.1738193321023" y="33.53971860653829"/>
    <node id="276" x="-112.2638323175868" y="33.51057543890337"/>
    <node id="277" x="-112.20382015710967" y="33.66939055084568"/>
    <node id="278" x="-112.19291933576017" y="33.54420530386412"/>
    <node id="279" x="-112.26382980736376" y="33.508047202552824"/>
    <node id="280" x="-112.22550477741846" y="33.65136527538202"/>
    <node id="285" x="-112.25537378690804" y="33.51282073229773"/>
    <node id="287" x="-112.1856660980689" y="33.53978984294447"/>
    <node id="289" x="-112.27411164913319" y="33.50885029737539"/>
    <node id="291" x="-112.27246322560728" y="33.507367605731844"/>
    <node id="300" x="-112.20891420309238" y="33.65998015190708"/>
    <node id="301" x="-112.18262406906634" y="33.54087274640522"/>
    <node id="303" x="-112.20053078394801" y="33.560000012007805"/>
    <node id="307" x="-112.18408697591408" y="33.66106393711215"/>
    <node id="308" x="-112.24201633044078" y="33.63814250993444"/>
    <node id="309" x="-112.20444443374858" y="33.542092814914966"/>
    <node id="313" x="-112.18134420947086" y="33.54090027335573"/>
    <node id="314" x="-112.23743797292752" y="33.64499564405039"/>
    <node id="322" x="-112.2361464691328" y="33.65432305378242"/>
    <node id="327" x="-112.20712801915302" y="33.54913825322427"/>
    <node id="331" x="-112.20526505099846" y="33.5529282698377"/>
    <node id="336" x="-112.19942213089111" y="33.55018412253924"/>
    <node id="340" x="-112.25506055128744" y="33.55148634372064"/>
    <node id="342" x="-112.25716678653994" y="33.543383701728146"/>
    <node id="343" x="-112.25322864524166" y="33.543391668555664"/>
    <node id="344" x="-112.20292487722531" y="33.5529260242363" type="traffic_light"/>
    <node id="345" x="-112.20188362701552" y="33.55004625908117"/>
    <node id="346" x="-112.20292524978264" y="33.554198378877665"/>
    <node id="347" x="-112.26369050223616" y="33.52636051390505"/>
    <node id="349" x="-112.26447966604711" y="33.528047281533034"/>
    <node id="350" x="-112.22024839450431" y="33.64014701749804"/>
    <node id="351" x="-112.26839657072112" y="33.52408723791403"/>
    <node id="352" x="-112.26839493523768" y="33.52252358242436"/>
    <node id="353" x="-112.22254492762372" y="33.64014620244345"/>
    <node id="354" x="-112.2696305460747" y="33.524366630295305"/>
    <node id="355" x="-112.26962848342964" y="33.52242099227653"/>
    <node id="356" x="-112.16807809881782" y="33.52447472483535"/>
    <node id="357" x="-112.18126855556955" y="33.53685786032624"/>
    <node id="358" x="-112.22260159251539" y="33.641704313246414"/>
    <node id="359" x="-112.22388242748187" y="33.64074203005867"/>
    <node id="361" x="-112.16795386500948" y="33.520410304594215"/>
    <node id="362" x="-112.1723142060008" y="33.52047102206294"/>
    <node id="363" x="-112.22114098314336" y="33.670614012826675" type="traffic_light"/>
    <node id="364" x="-112.16733999593227" y="33.523287496024835"/>
    <node id="365" x="-112.17120800644423" y="33.527753381481084"/>
    <node id="366" x="-112.16740188212235" y="33.527184277149445"/>
    <node id="367" x="-112.19291801438135" y="33.53675802829275"/>
    <node id="368" x="-112.17653663934131" y="33.53077092685825"/>
    <node id="369" x="-112.16853416936517" y="33.524463766411536"/>
    <node id="370" x="-112.1761888009505" y="33.53203503873134"/>
    <node id="371" x="-112.26316278502532" y="33.533571830682924"/>
    <node id="372" x="-112.25896265308394" y="33.53366260263993"/>
    <node id="373" x="-112.25628671086749" y="33.53553577195579"/>
    <node id="377" x="-112.2314742927192" y="33.64460542300722"/>
    <node id="378" x="-112.23102349835632" y="33.64884307276333"/>
    <node id="379" x="-112.27205869084376" y="33.52149031041776"/>
    <node id="380" x="-112.23543406151624" y="33.64058052092674"/>
    <node id="382" x="-112.22384587305211" y="33.67062676848781"/>
    <node id="386" x="-112.26850023458476" y="33.53221597175191"/>
    <node id="387" x="-112.26846414077244" y="33.52908319244985"/>
    <node id="388" x="-112.2376672107494" y="33.64863116898078"/>
    <node id="389" x="-112.23673513027605" y="33.65020898430458"/>
    <node id="390" x="-112.27207800877157" y="33.521152281915896"/>
    <node id="750" x="-112.1687055708027" y="33.51671144194557" type="traffic_light"/>
    <node id="775" x="-112.16863629638856" y="33.520413103449314" type="traffic_light"/>
    <node id="812" x="-112.177527594501" y="33.524002414364254" type="traffic_light"/>
    <node id="825" x="-112.16856992295467" y="33.52775047105354" type="traffic_light"/>
    <node id="858" x="-112.17615271758918" y="33.531293057770796" type="traffic_light"/>
    <node id="899" x="-112.18322430835623" y="33.536148782445" type="traffic_light"/>
    <node id="909" x="-112.17511233620898" y="33.538498493979155" type="traffic_light"/>
    <node id="912" x="-112.17754072366596" y="33.53852324986805" type="traffic_light"/>
    <node id="915" x="-112.18011678479985" y="33.53854795511818" type="traffic_light"/>
    <node id="918" x="-112.18134410612602" y="33.53855891550532" type="traffic_light"/>
    <node id="919" x="-112.18262393364127" y="33.538572609645165" type="traffic_light"/>
    <node id="921" x="-112.18384141080816" y="33.53858354568799" type="traffic_light"/>
    <node id="937" x="-112.17755385067694" y="33.53972140963576" type="traffic_light"/>
    <node id="2000" x="-112.18633724418821" y="33.52411477117064"/>
    <node id="2050" x="-112.18633798404525" y="33.53139717757833" type="traffic_light"/>
    <node id="2062" x="-112.19515820100108" y="33.53132203682684"/>
    <node id="2100" x="-112.18633871690541" y="33.538608125509526" type="traffic_light"/>
    <node id="2109" x="-112.19291505307869" y="33.53856351293824" type="traffic_light"/>
    <node id="2124" x="-112.18633883702552" y="33.53978979681512" type="traffic_light"/>
    <node id="2125" x="-112.18633908008064" y="33.54218061946356" type="traffic_light"/>
    <node id="2137" x="-112.19291897050394" y="33.542146998708475" type="traffic_light"/>
    <node id="2200" x="-112.186340186763" y="33.55306297293905"/>
    <node id="2206" x="-112.19075139286136" y="33.552993878124575" type="traffic_light"/>
    <node id="2212" x="-112.1950050487314" y="33.5529246485064"/>
    <node id="2306" x="-112.19075359908653" y="33.567451439757356"/>
    <node id="2312" x="-112.19500796373883" y="33.56738221001226"/>
    <node id="2324" x="-112.20304396424608" y="33.56724066221907"/>
    <node id="2900" x="-112.18724099360088" y="33.65411123811361"/>
    <node id="2950" x="-112.18725492111443" y="33.66106372799973" type="traffic_light"/>
    <node id="2975" x="-112.18725535482595" y="33.66491095281121" type="traffic_light"/>
    <node id="3000" x="-112.18725562748676" y="33.66732920717936" type="traffic_light"/>
    <node id="3001" x="-112.1872557576318" y="33.66848337370278" type="traffic_light"/>
    <node id="3025" x="-112.18725594976421" y="33.67018714293804" type="traffic_light"/>
    <node id="3050" x="-112.1872561791047" y="33.67222067334493" type="traffic_light"/>
    <node id="3100" x="-112.24489917541432" y="33.5091801646244"/>
    <node id="3300" x="-112.20303550167488" y="33.538468406047855"/>
    <node id="3325" x="-112.20303328537908" y="33.5420931138004" type="traffic_light"/>
    <node id="3350" x="-112.20302775804637" y="33.54561888959538" type="traffic_light"/>
    <node id="3375" x="-112.20302879760605" y="33.549155654299355" type="traffic_light"/>
    <node id="3425" x="-112.2034541190354" y="33.555654744026754" type="traffic_light"/>
    <node id="3450" x="-112.2030352684918" y="33.55999952097877" type="traffic_light"/>
    <node id="3618" x="-112.21686349939354" y="33.638221773354324"/>
    <node id="3700" x="-112.20381506230791" y="33.6526496230714"/>
    <node id="3725" x="-112.20381613243575" y="33.65616709032498"/>
    <node id="3750" x="-112.20381725292485" y="33.65984943670815" type="traffic_light"/>
    <node id="3775" x="-112.20381836525344" y="33.66350430072173" type="traffic_light"/>
    <node id="3825" x="-112.20382087500202" y="33.671748346939324" type="traffic_light"/>
    <node id="3924" x="-112.22114653481714" y="33.681606057301636"/>
    <node id="3950" x="-112.20382613539897" y="33.68901684004722"/>
    <node id="4212" x="-112.2410164872103" y="33.53806177892064"/>
    <node id="4300" x="-112.22112461215679" y="33.638165383321706" type="traffic_light"/>
    <node id="4306" x="-112.22548759654369" y="33.638163767543865" type="traffic_light"/>
    <node id="4312" x="-112.22990314683365" y="33.63816197556689" type="traffic_light"/>
    <node id="4324" x="-112.2344238290754" y="33.638159977577565" type="traffic_light"/>
    <node id="4325" x="-112.22112561102283" y="33.64014671120259" type="traffic_light"/>
    <node id="4350" x="-112.22112639660745" y="33.64170484239034" type="traffic_light"/>
    <node id="4362" x="-112.23203082923139" y="33.64140098034245" type="traffic_light"/>
    <node id="4374" x="-112.23464567180295" y="33.64076775356721" type="traffic_light"/>
    <node id="4399" x="-112.23768474293301" y="33.650216769842515" type="traffic_light"/>
    <node id="4400" x="-112.22113191402714" y="33.652644725950594" type="traffic_light"/>
    <node id="4406" x="-112.2255055232722" y="33.652709057979095"/>
    <node id="4412" x="-112.22981999053096" y="33.65277051229707" type="traffic_light"/>
    <node id="4417" x="-112.23244545221655" y="33.65276937357525" type="traffic_light"/>
    <node id="4419" x="-112.23382554468894" y="33.65276875264107" type="traffic_light"/>
    <node id="4423" x="-112.23614541437084" y="33.65276767416639" type="traffic_light"/>
    <node id="4424" x="-112.23848499959931" y="33.65276654243859" type="traffic_light"/>
    <node id="4450" x="-112.22113563001922" y="33.66000941936037" type="traffic_light"/>
    <node id="4550" x="-112.22114284400647" y="33.674299097919096" type="traffic_light"/>
    <node id="4900" x="-112.25502935650883" y="33.50918248458248" type="traffic_light"/>
    <node id="4912" x="-112.2638308196008" y="33.50906674146637" type="traffic_light"/>
    <node id="4915" x="-112.25502275661373" y="33.51281820434432" type="traffic_light"/>
    <node id="4919" x="-112.26860383475136" y="33.50896714099407"/>
    <node id="4920" x="-112.26915167629274" y="33.508966736973136" type="traffic_light"/>
    <node id="4921" x="-112.2697257617348" y="33.5089663109985"/>
    <node id="4924" x="-112.27245830031933" y="33.50886531592077" type="traffic_light"/>
    <node id="4936" x="-112.27242250231853" y="33.521146522275984" type="traffic_light"/>
    <node id="5000" x="-112.2550192013734" y="33.52354671552517" type="traffic_light"/>
    <node id="5012" x="-112.26368770574038" y="33.5235409878772" type="traffic_light"/>
    <node id="5020" x="-112.26839599584436" y="33.52353762267275" type="traffic_light"/>
    <node id="5021" x="-112.26962966622165" y="33.52353671132828" type="traffic_light"/>
    <node id="5024" x="-112.27241526758887" y="33.52353460833685" type="traffic_light"/>
    <node id="5025" x="-112.25501885709201" y="33.52683891327196" type="traffic_light"/>
    <node id="5050" x="-112.25501922164571" y="33.53092530270059" type="traffic_light"/>
    <node id="5052" x="-112.25708968772031" y="33.5308745243"/>
    <node id="5060" x="-112.2646234502426" y="33.53073205068916" type="traffic_light"/>
    <node id="5063" x="-112.2550446486417" y="33.533678857848386" type="traffic_light"/>
    <node id="5068" x="-112.25714475846004" y="33.53367752527082" type="traffic_light"/>
    <node id="5070" x="-112.26848562115806" y="33.530795227766724" type="traffic_light"/>
    <node id="5073" x="-112.26469188965591" y="33.53353503875381" type="traffic_light"/>
    <node id="5074" x="-112.2722918834083" y="33.530737411894336" type="traffic_light"/>
    <node id="5081" x="-112.2572153578998" y="33.53551868932548" type="traffic_light"/>
    <node id="5087" x="-112.2647593950779" y="33.53540368132243" type="traffic_light"/>
    <node id="5100" x="-112.25504847823257" y="33.5379685979473" type="traffic_light"/>
    <node id="5106" x="-112.2590092800369" y="33.537891856720556" type="traffic_light"/>
    <node id="5112" x="-112.26366573931962" y="33.537784278005894" type="traffic_light"/>
    <node id="5119" x="-112.26912615488136" y="33.53765944362558"/>
    <node id="5120" x="-112.26967417734839" y="33.53765903698917" type="traffic_light"/>
    <node id="5121" x="-112.27024845238317" y="33.53765860827096"/>
    <node id="5139" x="-112.2550533197406" y="33.543390539373796" type="traffic_light"/>
    <node id="5300" x="-112.27237483270153" y="33.537585547787494" type="traffic_light"/>
</nodes>
