<?xml version="1.0" ?>
<additional>
    <inductionLoop id="356_1_0_detector" lane="356_1_0" pos="-8" friendlyPos="true" file="output_loop_detector_202504061454.xml"/>
    <inductionLoop id="812_1_0_detector" lane="812_1_0" pos="-8" friendlyPos="true" file="output_loop_detector_202504061454.xml"/>
    <inductionLoop id="812_1_1_detector" lane="812_1_1" pos="-8" friendlyPos="true" file="output_loop_detector_202504061454.xml"/>
    <inductionLoop id="812_1_2_detector" lane="812_1_2" pos="-8" friendlyPos="true" file="output_loop_detector_202504061454.xml"/>
    <inductionLoop id="812_1_3_detector" lane="812_1_3" pos="-8" friendlyPos="true" file="output_loop_detector_202504061454.xml"/>
    <inductionLoop id="212_1_0_detector" lane="212_1_0" pos="-8" friendlyPos="true" file="output_loop_detector_202504061454.xml"/>
    <inductionLoop id="212_1_1_detector" lane="212_1_1" pos="-8" friendlyPos="true" file="output_loop_detector_202504061454.xml"/>
    <inductionLoop id="212_1_2_detector" lane="212_1_2" pos="-8" friendlyPos="true" file="output_loop_detector_202504061454.xml"/>
    <inductionLoop id="212_1_3_detector" lane="212_1_3" pos="-8" friendlyPos="true" file="output_loop_detector_202504061454.xml"/>
    <inductionLoop id="364_1_0_detector" lane="364_1_0" pos="-8" friendlyPos="true" file="output_loop_detector_202504061454.xml"/>
    <inductionLoop id="364_1_1_detector" lane="364_1_1" pos="-8" friendlyPos="true" file="output_loop_detector_202504061454.xml"/>
    <inductionLoop id="364_1_2_detector" lane="364_1_2" pos="-8" friendlyPos="true" file="output_loop_detector_202504061454.xml"/>
    <inductionLoop id="364_1_3_detector" lane="364_1_3" pos="-8" friendlyPos="true" file="output_loop_detector_202504061454.xml"/>
    <inductionLoop id="369_1_0_detector" lane="369_1_0" pos="-8" friendlyPos="true" file="output_loop_detector_202504061454.xml"/>
    <inductionLoop id="369_1_1_detector" lane="369_1_1" pos="-8" friendlyPos="true" file="output_loop_detector_202504061454.xml"/>
    <inductionLoop id="369_1_2_detector" lane="369_1_2" pos="-8" friendlyPos="true" file="output_loop_detector_202504061454.xml"/>
    <inductionLoop id="369_1_3_detector" lane="369_1_3" pos="-8" friendlyPos="true" file="output_loop_detector_202504061454.xml"/>
    <inductionLoop id="909_13_0_detector" lane="909_13_0" pos="-8" friendlyPos="true" file="output_loop_detector_202504061454.xml"/>
    <inductionLoop id="937_13_0_detector" lane="937_13_0" pos="-8" friendlyPos="true" file="output_loop_detector_202504061454.xml"/>
    <inductionLoop id="273_13_0_detector" lane="273_13_0" pos="-8" friendlyPos="true" file="output_loop_detector_202504061454.xml"/>
    <inductionLoop id="90_91_0_detector" lane="90_91_0" pos="-8" friendlyPos="true" file="output_loop_detector_202504061454.xml"/>
    <inductionLoop id="90_91_1_detector" lane="90_91_1" pos="-8" friendlyPos="true" file="output_loop_detector_202504061454.xml"/>
    <inductionLoop id="90_91_2_detector" lane="90_91_2" pos="-8" friendlyPos="true" file="output_loop_detector_202504061454.xml"/>
    <inductionLoop id="90_91_3_detector" lane="90_91_3" pos="-8" friendlyPos="true" file="output_loop_detector_202504061454.xml"/>
    <inductionLoop id="90_91_4_detector" lane="90_91_4" pos="-8" friendlyPos="true" file="output_loop_detector_202504061454.xml"/>
    <inductionLoop id="92_91_0_detector" lane="92_91_0" pos="-8" friendlyPos="true" file="output_loop_detector_202504061454.xml"/>
    <inductionLoop id="92_91_1_detector" lane="92_91_1" pos="-8" friendlyPos="true" file="output_loop_detector_202504061454.xml"/>
    <inductionLoop id="92_91_2_detector" lane="92_91_2" pos="-8" friendlyPos="true" file="output_loop_detector_202504061454.xml"/>
    <inductionLoop id="92_91_3_detector" lane="92_91_3" pos="-8" friendlyPos="true" file="output_loop_detector_202504061454.xml"/>
    <inductionLoop id="92_91_4_detector" lane="92_91_4" pos="-8" friendlyPos="true" file="output_loop_detector_202504061454.xml"/>
    <inductionLoop id="89_91_0_detector" lane="89_91_0" pos="-8" friendlyPos="true" file="output_loop_detector_202504061454.xml"/>
    <inductionLoop id="89_91_1_detector" lane="89_91_1" pos="-8" friendlyPos="true" file="output_loop_detector_202504061454.xml"/>
    <inductionLoop id="93_91_0_detector" lane="93_91_0" pos="-8" friendlyPos="true" file="output_loop_detector_202504061454.xml"/>
    <inductionLoop id="93_91_1_detector" lane="93_91_1" pos="-8" friendlyPos="true" file="output_loop_detector_202504061454.xml"/>
    <inductionLoop id="250_101_0_detector" lane="250_101_0" pos="-8" friendlyPos="true" file="output_loop_detector_202504061454.xml"/>
    <inductionLoop id="250_101_1_detector" lane="250_101_1" pos="-8" friendlyPos="true" file="output_loop_detector_202504061454.xml"/>
    <inductionLoop id="250_101_2_detector" lane="250_101_2" pos="-8" friendlyPos="true" file="output_loop_detector_202504061454.xml"/>
    <inductionLoop id="363_101_0_detector" lane="363_101_0" pos="-8" friendlyPos="true" file="output_loop_detector_202504061454.xml"/>
    <inductionLoop id="363_101_1_detector" lane="363_101_1" pos="-8" friendlyPos="true" file="output_loop_detector_202504061454.xml"/>
    <inductionLoop id="363_101_2_detector" lane="363_101_2" pos="-8" friendlyPos="true" file="output_loop_detector_202504061454.xml"/>
    <inductionLoop id="363_101_3_detector" lane="363_101_3" pos="-8" friendlyPos="true" file="output_loop_detector_202504061454.xml"/>
    <inductionLoop id="363_101_4_detector" lane="363_101_4" pos="-8" friendlyPos="true" file="output_loop_detector_202504061454.xml"/>
    <inductionLoop id="239_101_0_detector" lane="239_101_0" pos="-8" friendlyPos="true" file="output_loop_detector_202504061454.xml"/>
    <inductionLoop id="239_101_1_detector" lane="239_101_1" pos="-8" friendlyPos="true" file="output_loop_detector_202504061454.xml"/>
    <inductionLoop id="239_101_2_detector" lane="239_101_2" pos="-8" friendlyPos="true" file="output_loop_detector_202504061454.xml"/>
    <inductionLoop id="239_101_3_detector" lane="239_101_3" pos="-8" friendlyPos="true" file="output_loop_detector_202504061454.xml"/>
    <inductionLoop id="3775_102_0_detector" lane="3775_102_0" pos="-8" friendlyPos="true" file="output_loop_detector_202504061454.xml"/>
    <inductionLoop id="3775_102_1_detector" lane="3775_102_1" pos="-8" friendlyPos="true" file="output_loop_detector_202504061454.xml"/>
    <inductionLoop id="3775_102_2_detector" lane="3775_102_2" pos="-8" friendlyPos="true" file="output_loop_detector_202504061454.xml"/>
    <inductionLoop id="3775_102_3_detector" lane="3775_102_3" pos="-8" friendlyPos="true" file="output_loop_detector_202504061454.xml"/>
    <inductionLoop id="103_102_0_detector" lane="103_102_0" pos="-8" friendlyPos="true" file="output_loop_detector_202504061454.xml"/>
    <inductionLoop id="103_102_1_detector" lane="103_102_1" pos="-8" friendlyPos="true" file="output_loop_detector_202504061454.xml"/>
    <inductionLoop id="103_102_2_detector" lane="103_102_2" pos="-8" friendlyPos="true" file="output_loop_detector_202504061454.xml"/>
    <inductionLoop id="103_102_3_detector" lane="103_102_3" pos="-8" friendlyPos="true" file="output_loop_detector_202504061454.xml"/>
    <inductionLoop id="211_102_0_detector" lane="211_102_0" pos="-8" friendlyPos="true" file="output_loop_detector_202504061454.xml"/>
    <inductionLoop id="211_102_1_detector" lane="211_102_1" pos="-8" friendlyPos="true" file="output_loop_detector_202504061454.xml"/>
    <inductionLoop id="211_102_2_detector" lane="211_102_2" pos="-8" friendlyPos="true" file="output_loop_detector_202504061454.xml"/>
    <inductionLoop id="211_102_3_detector" lane="211_102_3" pos="-8" friendlyPos="true" file="output_loop_detector_202504061454.xml"/>
    <inductionLoop id="102_103_0_detector" lane="102_103_0" pos="-8" friendlyPos="true" file="output_loop_detector_202504061454.xml"/>
    <inductionLoop id="102_103_1_detector" lane="102_103_1" pos="-8" friendlyPos="true" file="output_loop_detector_202504061454.xml"/>
    <inductionLoop id="102_103_2_detector" lane="102_103_2" pos="-8" friendlyPos="true" file="output_loop_detector_202504061454.xml"/>
    <inductionLoop id="277_103_0_detector" lane="277_103_0" pos="-8" friendlyPos="true" file="output_loop_detector_202504061454.xml"/>
    <inductionLoop id="277_103_1_detector" lane="277_103_1" pos="-8" friendlyPos="true" file="output_loop_detector_202504061454.xml"/>
    <inductionLoop id="277_103_2_detector" lane="277_103_2" pos="-8" friendlyPos="true" file="output_loop_detector_202504061454.xml"/>
    <inductionLoop id="277_103_3_detector" lane="277_103_3" pos="-8" friendlyPos="true" file="output_loop_detector_202504061454.xml"/>
    <inductionLoop id="277_103_4_detector" lane="277_103_4" pos="-8" friendlyPos="true" file="output_loop_detector_202504061454.xml"/>
    <inductionLoop id="216_103_0_detector" lane="216_103_0" pos="-8" friendlyPos="true" file="output_loop_detector_202504061454.xml"/>
    <inductionLoop id="216_103_1_detector" lane="216_103_1" pos="-8" friendlyPos="true" file="output_loop_detector_202504061454.xml"/>
    <inductionLoop id="216_103_2_detector" lane="216_103_2" pos="-8" friendlyPos="true" file="output_loop_detector_202504061454.xml"/>
    <inductionLoop id="216_103_3_detector" lane="216_103_3" pos="-8" friendlyPos="true" file="output_loop_detector_202504061454.xml"/>
    <inductionLoop id="267_212_0_detector" lane="267_212_0" pos="-8" friendlyPos="true" file="output_loop_detector_202504061454.xml"/>
    <inductionLoop id="267_212_1_detector" lane="267_212_1" pos="-8" friendlyPos="true" file="output_loop_detector_202504061454.xml"/>
    <inductionLoop id="267_212_2_detector" lane="267_212_2" pos="-8" friendlyPos="true" file="output_loop_detector_202504061454.xml"/>
    <inductionLoop id="57_212_0_detector" lane="57_212_0" pos="-8" friendlyPos="true" file="output_loop_detector_202504061454.xml"/>
    <inductionLoop id="57_212_1_detector" lane="57_212_1" pos="-8" friendlyPos="true" file="output_loop_detector_202504061454.xml"/>
    <inductionLoop id="57_212_2_detector" lane="57_212_2" pos="-8" friendlyPos="true" file="output_loop_detector_202504061454.xml"/>
    <inductionLoop id="1_212_0_detector" lane="1_212_0" pos="-8" friendlyPos="true" file="output_loop_detector_202504061454.xml"/>
    <inductionLoop id="1_212_1_detector" lane="1_212_1" pos="-8" friendlyPos="true" file="output_loop_detector_202504061454.xml"/>
    <inductionLoop id="1_212_2_detector" lane="1_212_2" pos="-8" friendlyPos="true" file="output_loop_detector_202504061454.xml"/>
    <inductionLoop id="129_212_0_detector" lane="129_212_0" pos="-8" friendlyPos="true" file="output_loop_detector_202504061454.xml"/>
    <inductionLoop id="129_212_1_detector" lane="129_212_1" pos="-8" friendlyPos="true" file="output_loop_detector_202504061454.xml"/>
    <inductionLoop id="129_212_2_detector" lane="129_212_2" pos="-8" friendlyPos="true" file="output_loop_detector_202504061454.xml"/>
    <inductionLoop id="129_212_3_detector" lane="129_212_3" pos="-8" friendlyPos="true" file="output_loop_detector_202504061454.xml"/>
    <inductionLoop id="4450_250_0_detector" lane="4450_250_0" pos="-8" friendlyPos="true" file="output_loop_detector_202504061454.xml"/>
    <inductionLoop id="4450_250_1_detector" lane="4450_250_1" pos="-8" friendlyPos="true" file="output_loop_detector_202504061454.xml"/>
    <inductionLoop id="4450_250_2_detector" lane="4450_250_2" pos="-8" friendlyPos="true" file="output_loop_detector_202504061454.xml"/>
    <inductionLoop id="4450_250_3_detector" lane="4450_250_3" pos="-8" friendlyPos="true" file="output_loop_detector_202504061454.xml"/>
    <inductionLoop id="101_250_0_detector" lane="101_250_0" pos="-8" friendlyPos="true" file="output_loop_detector_202504061454.xml"/>
    <inductionLoop id="101_250_1_detector" lane="101_250_1" pos="-8" friendlyPos="true" file="output_loop_detector_202504061454.xml"/>
    <inductionLoop id="101_250_2_detector" lane="101_250_2" pos="-8" friendlyPos="true" file="output_loop_detector_202504061454.xml"/>
    <inductionLoop id="101_250_3_detector" lane="101_250_3" pos="-8" friendlyPos="true" file="output_loop_detector_202504061454.xml"/>
    <inductionLoop id="242_250_0_detector" lane="242_250_0" pos="-8" friendlyPos="true" file="output_loop_detector_202504061454.xml"/>
    <inductionLoop id="242_250_1_detector" lane="242_250_1" pos="-8" friendlyPos="true" file="output_loop_detector_202504061454.xml"/>
    <inductionLoop id="242_250_2_detector" lane="242_250_2" pos="-8" friendlyPos="true" file="output_loop_detector_202504061454.xml"/>
    <inductionLoop id="3425_254_0_detector" lane="3425_254_0" pos="-8" friendlyPos="true" file="output_loop_detector_202504061454.xml"/>
    <inductionLoop id="3425_254_1_detector" lane="3425_254_1" pos="-8" friendlyPos="true" file="output_loop_detector_202504061454.xml"/>
    <inductionLoop id="3425_254_2_detector" lane="3425_254_2" pos="-8" friendlyPos="true" file="output_loop_detector_202504061454.xml"/>
    <inductionLoop id="344_254_0_detector" lane="344_254_0" pos="-8" friendlyPos="true" file="output_loop_detector_202504061454.xml"/>
    <inductionLoop id="344_254_1_detector" lane="344_254_1" pos="-8" friendlyPos="true" file="output_loop_detector_202504061454.xml"/>
    <inductionLoop id="344_254_2_detector" lane="344_254_2" pos="-8" friendlyPos="true" file="output_loop_detector_202504061454.xml"/>
    <inductionLoop id="152_254_0_detector" lane="152_254_0" pos="-8" friendlyPos="true" file="output_loop_detector_202504061454.xml"/>
    <inductionLoop id="152_254_1_detector" lane="152_254_1" pos="-8" friendlyPos="true" file="output_loop_detector_202504061454.xml"/>
    <inductionLoop id="152_254_2_detector" lane="152_254_2" pos="-8" friendlyPos="true" file="output_loop_detector_202504061454.xml"/>
    <inductionLoop id="152_254_3_detector" lane="152_254_3" pos="-8" friendlyPos="true" file="output_loop_detector_202504061454.xml"/>
    <inductionLoop id="345_344_0_detector" lane="345_344_0" pos="-8" friendlyPos="true" file="output_loop_detector_202504061454.xml"/>
    <inductionLoop id="331_344_0_detector" lane="331_344_0" pos="-8" friendlyPos="true" file="output_loop_detector_202504061454.xml"/>
    <inductionLoop id="331_344_1_detector" lane="331_344_1" pos="-8" friendlyPos="true" file="output_loop_detector_202504061454.xml"/>
    <inductionLoop id="331_344_2_detector" lane="331_344_2" pos="-8" friendlyPos="true" file="output_loop_detector_202504061454.xml"/>
    <inductionLoop id="331_344_3_detector" lane="331_344_3" pos="-8" friendlyPos="true" file="output_loop_detector_202504061454.xml"/>
    <inductionLoop id="2212_344_0_detector" lane="2212_344_0" pos="-8" friendlyPos="true" file="output_loop_detector_202504061454.xml"/>
    <inductionLoop id="2212_344_1_detector" lane="2212_344_1" pos="-8" friendlyPos="true" file="output_loop_detector_202504061454.xml"/>
    <inductionLoop id="2212_344_2_detector" lane="2212_344_2" pos="-8" friendlyPos="true" file="output_loop_detector_202504061454.xml"/>
    <inductionLoop id="336_344_0_detector" lane="336_344_0" pos="-8" friendlyPos="true" file="output_loop_detector_202504061454.xml"/>
    <inductionLoop id="336_344_1_detector" lane="336_344_1" pos="-8" friendlyPos="true" file="output_loop_detector_202504061454.xml"/>
    <inductionLoop id="336_344_2_detector" lane="336_344_2" pos="-8" friendlyPos="true" file="output_loop_detector_202504061454.xml"/>
    <inductionLoop id="336_344_3_detector" lane="336_344_3" pos="-8" friendlyPos="true" file="output_loop_detector_202504061454.xml"/>
    <inductionLoop id="336_344_4_detector" lane="336_344_4" pos="-8" friendlyPos="true" file="output_loop_detector_202504061454.xml"/>
    <inductionLoop id="254_344_0_detector" lane="254_344_0" pos="-8" friendlyPos="true" file="output_loop_detector_202504061454.xml"/>
    <inductionLoop id="254_344_1_detector" lane="254_344_1" pos="-8" friendlyPos="true" file="output_loop_detector_202504061454.xml"/>
    <inductionLoop id="254_344_2_detector" lane="254_344_2" pos="-8" friendlyPos="true" file="output_loop_detector_202504061454.xml"/>
    <inductionLoop id="254_344_3_detector" lane="254_344_3" pos="-8" friendlyPos="true" file="output_loop_detector_202504061454.xml"/>
    <inductionLoop id="254_344_4_detector" lane="254_344_4" pos="-8" friendlyPos="true" file="output_loop_detector_202504061454.xml"/>
    <inductionLoop id="254_344_5_detector" lane="254_344_5" pos="-8" friendlyPos="true" file="output_loop_detector_202504061454.xml"/>
    <inductionLoop id="101_363_0_detector" lane="101_363_0" pos="-8" friendlyPos="true" file="output_loop_detector_202504061454.xml"/>
    <inductionLoop id="101_363_1_detector" lane="101_363_1" pos="-8" friendlyPos="true" file="output_loop_detector_202504061454.xml"/>
    <inductionLoop id="101_363_2_detector" lane="101_363_2" pos="-8" friendlyPos="true" file="output_loop_detector_202504061454.xml"/>
    <inductionLoop id="101_363_3_detector" lane="101_363_3" pos="-8" friendlyPos="true" file="output_loop_detector_202504061454.xml"/>
    <inductionLoop id="4550_363_0_detector" lane="4550_363_0" pos="-8" friendlyPos="true" file="output_loop_detector_202504061454.xml"/>
    <inductionLoop id="4550_363_1_detector" lane="4550_363_1" pos="-8" friendlyPos="true" file="output_loop_detector_202504061454.xml"/>
    <inductionLoop id="4550_363_2_detector" lane="4550_363_2" pos="-8" friendlyPos="true" file="output_loop_detector_202504061454.xml"/>
    <inductionLoop id="4550_363_3_detector" lane="4550_363_3" pos="-8" friendlyPos="true" file="output_loop_detector_202504061454.xml"/>
    <inductionLoop id="382_363_0_detector" lane="382_363_0" pos="-8" friendlyPos="true" file="output_loop_detector_202504061454.xml"/>
    <inductionLoop id="382_363_1_detector" lane="382_363_1" pos="-8" friendlyPos="true" file="output_loop_detector_202504061454.xml"/>
    <inductionLoop id="8_750_0_detector" lane="8_750_0" pos="-8" friendlyPos="true" file="output_loop_detector_202504061454.xml"/>
    <inductionLoop id="8_750_1_detector" lane="8_750_1" pos="-8" friendlyPos="true" file="output_loop_detector_202504061454.xml"/>
    <inductionLoop id="8_750_2_detector" lane="8_750_2" pos="-8" friendlyPos="true" file="output_loop_detector_202504061454.xml"/>
    <inductionLoop id="8_750_3_detector" lane="8_750_3" pos="-8" friendlyPos="true" file="output_loop_detector_202504061454.xml"/>
    <inductionLoop id="775_750_0_detector" lane="775_750_0" pos="-8" friendlyPos="true" file="output_loop_detector_202504061454.xml"/>
    <inductionLoop id="775_750_1_detector" lane="775_750_1" pos="-8" friendlyPos="true" file="output_loop_detector_202504061454.xml"/>
    <inductionLoop id="775_750_2_detector" lane="775_750_2" pos="-8" friendlyPos="true" file="output_loop_detector_202504061454.xml"/>
    <inductionLoop id="2_750_0_detector" lane="2_750_0" pos="-8" friendlyPos="true" file="output_loop_detector_202504061454.xml"/>
    <inductionLoop id="2_750_1_detector" lane="2_750_1" pos="-8" friendlyPos="true" file="output_loop_detector_202504061454.xml"/>
    <inductionLoop id="114_750_0_detector" lane="114_750_0" pos="-8" friendlyPos="true" file="output_loop_detector_202504061454.xml"/>
    <inductionLoop id="750_775_0_detector" lane="750_775_0" pos="-8" friendlyPos="true" file="output_loop_detector_202504061454.xml"/>
    <inductionLoop id="750_775_1_detector" lane="750_775_1" pos="-8" friendlyPos="true" file="output_loop_detector_202504061454.xml"/>
    <inductionLoop id="750_775_2_detector" lane="750_775_2" pos="-8" friendlyPos="true" file="output_loop_detector_202504061454.xml"/>
    <inductionLoop id="750_775_3_detector" lane="750_775_3" pos="-8" friendlyPos="true" file="output_loop_detector_202504061454.xml"/>
    <inductionLoop id="825_775_0_detector" lane="825_775_0" pos="-8" friendlyPos="true" file="output_loop_detector_202504061454.xml"/>
    <inductionLoop id="825_775_1_detector" lane="825_775_1" pos="-8" friendlyPos="true" file="output_loop_detector_202504061454.xml"/>
    <inductionLoop id="825_775_2_detector" lane="825_775_2" pos="-8" friendlyPos="true" file="output_loop_detector_202504061454.xml"/>
    <inductionLoop id="825_775_3_detector" lane="825_775_3" pos="-8" friendlyPos="true" file="output_loop_detector_202504061454.xml"/>
    <inductionLoop id="362_775_0_detector" lane="362_775_0" pos="-8" friendlyPos="true" file="output_loop_detector_202504061454.xml"/>
    <inductionLoop id="362_775_1_detector" lane="362_775_1" pos="-8" friendlyPos="true" file="output_loop_detector_202504061454.xml"/>
    <inductionLoop id="361_775_0_detector" lane="361_775_0" pos="-8" friendlyPos="true" file="output_loop_detector_202504061454.xml"/>
    <inductionLoop id="361_775_1_detector" lane="361_775_1" pos="-8" friendlyPos="true" file="output_loop_detector_202504061454.xml"/>
    <inductionLoop id="2_812_0_detector" lane="2_812_0" pos="-8" friendlyPos="true" file="output_loop_detector_202504061454.xml"/>
    <inductionLoop id="2_812_1_detector" lane="2_812_1" pos="-8" friendlyPos="true" file="output_loop_detector_202504061454.xml"/>
    <inductionLoop id="2_812_2_detector" lane="2_812_2" pos="-8" friendlyPos="true" file="output_loop_detector_202504061454.xml"/>
    <inductionLoop id="5_812_0_detector" lane="5_812_0" pos="-8" friendlyPos="true" file="output_loop_detector_202504061454.xml"/>
    <inductionLoop id="5_812_1_detector" lane="5_812_1" pos="-8" friendlyPos="true" file="output_loop_detector_202504061454.xml"/>
    <inductionLoop id="5_812_2_detector" lane="5_812_2" pos="-8" friendlyPos="true" file="output_loop_detector_202504061454.xml"/>
    <inductionLoop id="2000_812_0_detector" lane="2000_812_0" pos="-8" friendlyPos="true" file="output_loop_detector_202504061454.xml"/>
    <inductionLoop id="2000_812_1_detector" lane="2000_812_1" pos="-8" friendlyPos="true" file="output_loop_detector_202504061454.xml"/>
    <inductionLoop id="2000_812_2_detector" lane="2000_812_2" pos="-8" friendlyPos="true" file="output_loop_detector_202504061454.xml"/>
    <inductionLoop id="1_812_0_detector" lane="1_812_0" pos="-8" friendlyPos="true" file="output_loop_detector_202504061454.xml"/>
    <inductionLoop id="1_812_1_detector" lane="1_812_1" pos="-8" friendlyPos="true" file="output_loop_detector_202504061454.xml"/>
    <inductionLoop id="1_812_2_detector" lane="1_812_2" pos="-8" friendlyPos="true" file="output_loop_detector_202504061454.xml"/>
    <inductionLoop id="775_825_0_detector" lane="775_825_0" pos="-8" friendlyPos="true" file="output_loop_detector_202504061454.xml"/>
    <inductionLoop id="775_825_1_detector" lane="775_825_1" pos="-8" friendlyPos="true" file="output_loop_detector_202504061454.xml"/>
    <inductionLoop id="775_825_2_detector" lane="775_825_2" pos="-8" friendlyPos="true" file="output_loop_detector_202504061454.xml"/>
    <inductionLoop id="775_825_3_detector" lane="775_825_3" pos="-8" friendlyPos="true" file="output_loop_detector_202504061454.xml"/>
    <inductionLoop id="775_825_4_detector" lane="775_825_4" pos="-8" friendlyPos="true" file="output_loop_detector_202504061454.xml"/>
    <inductionLoop id="18_825_0_detector" lane="18_825_0" pos="-8" friendlyPos="true" file="output_loop_detector_202504061454.xml"/>
    <inductionLoop id="18_825_1_detector" lane="18_825_1" pos="-8" friendlyPos="true" file="output_loop_detector_202504061454.xml"/>
    <inductionLoop id="18_825_2_detector" lane="18_825_2" pos="-8" friendlyPos="true" file="output_loop_detector_202504061454.xml"/>
    <inductionLoop id="18_825_3_detector" lane="18_825_3" pos="-8" friendlyPos="true" file="output_loop_detector_202504061454.xml"/>
    <inductionLoop id="365_825_0_detector" lane="365_825_0" pos="-8" friendlyPos="true" file="output_loop_detector_202504061454.xml"/>
    <inductionLoop id="366_825_0_detector" lane="366_825_0" pos="-8" friendlyPos="true" file="output_loop_detector_202504061454.xml"/>
    <inductionLoop id="366_825_1_detector" lane="366_825_1" pos="-8" friendlyPos="true" file="output_loop_detector_202504061454.xml"/>
    <inductionLoop id="368_858_0_detector" lane="368_858_0" pos="-8" friendlyPos="true" file="output_loop_detector_202504061454.xml"/>
    <inductionLoop id="370_858_0_detector" lane="370_858_0" pos="-8" friendlyPos="true" file="output_loop_detector_202504061454.xml"/>
    <inductionLoop id="370_858_1_detector" lane="370_858_1" pos="-8" friendlyPos="true" file="output_loop_detector_202504061454.xml"/>
    <inductionLoop id="2050_858_0_detector" lane="2050_858_0" pos="-8" friendlyPos="true" file="output_loop_detector_202504061454.xml"/>
    <inductionLoop id="2050_858_1_detector" lane="2050_858_1" pos="-8" friendlyPos="true" file="output_loop_detector_202504061454.xml"/>
    <inductionLoop id="15_858_0_detector" lane="15_858_0" pos="-8" friendlyPos="true" file="output_loop_detector_202504061454.xml"/>
    <inductionLoop id="15_858_1_detector" lane="15_858_1" pos="-8" friendlyPos="true" file="output_loop_detector_202504061454.xml"/>
    <inductionLoop id="180_899_0_detector" lane="180_899_0" pos="-8" friendlyPos="true" file="output_loop_detector_202504061454.xml"/>
    <inductionLoop id="180_899_1_detector" lane="180_899_1" pos="-8" friendlyPos="true" file="output_loop_detector_202504061454.xml"/>
    <inductionLoop id="180_899_2_detector" lane="180_899_2" pos="-8" friendlyPos="true" file="output_loop_detector_202504061454.xml"/>
    <inductionLoop id="168_899_0_detector" lane="168_899_0" pos="-8" friendlyPos="true" file="output_loop_detector_202504061454.xml"/>
    <inductionLoop id="168_899_1_detector" lane="168_899_1" pos="-8" friendlyPos="true" file="output_loop_detector_202504061454.xml"/>
    <inductionLoop id="168_899_2_detector" lane="168_899_2" pos="-8" friendlyPos="true" file="output_loop_detector_202504061454.xml"/>
    <inductionLoop id="168_899_3_detector" lane="168_899_3" pos="-8" friendlyPos="true" file="output_loop_detector_202504061454.xml"/>
    <inductionLoop id="220_899_0_detector" lane="220_899_0" pos="-8" friendlyPos="true" file="output_loop_detector_202504061454.xml"/>
    <inductionLoop id="220_899_1_detector" lane="220_899_1" pos="-8" friendlyPos="true" file="output_loop_detector_202504061454.xml"/>
    <inductionLoop id="220_899_2_detector" lane="220_899_2" pos="-8" friendlyPos="true" file="output_loop_detector_202504061454.xml"/>
    <inductionLoop id="248_909_0_detector" lane="248_909_0" pos="-8" friendlyPos="true" file="output_loop_detector_202504061454.xml"/>
    <inductionLoop id="13_909_0_detector" lane="13_909_0" pos="-8" friendlyPos="true" file="output_loop_detector_202504061454.xml"/>
    <inductionLoop id="912_909_0_detector" lane="912_909_0" pos="-8" friendlyPos="true" file="output_loop_detector_202504061454.xml"/>
    <inductionLoop id="912_909_1_detector" lane="912_909_1" pos="-8" friendlyPos="true" file="output_loop_detector_202504061454.xml"/>
    <inductionLoop id="912_909_2_detector" lane="912_909_2" pos="-8" friendlyPos="true" file="output_loop_detector_202504061454.xml"/>
    <inductionLoop id="19_909_0_detector" lane="19_909_0" pos="-8" friendlyPos="true" file="output_loop_detector_202504061454.xml"/>
    <inductionLoop id="19_909_1_detector" lane="19_909_1" pos="-8" friendlyPos="true" file="output_loop_detector_202504061454.xml"/>
    <inductionLoop id="19_909_2_detector" lane="19_909_2" pos="-8" friendlyPos="true" file="output_loop_detector_202504061454.xml"/>
    <inductionLoop id="3_912_0_detector" lane="3_912_0" pos="-8" friendlyPos="true" file="output_loop_detector_202504061454.xml"/>
    <inductionLoop id="3_912_1_detector" lane="3_912_1" pos="-8" friendlyPos="true" file="output_loop_detector_202504061454.xml"/>
    <inductionLoop id="3_912_2_detector" lane="3_912_2" pos="-8" friendlyPos="true" file="output_loop_detector_202504061454.xml"/>
    <inductionLoop id="937_912_0_detector" lane="937_912_0" pos="-8" friendlyPos="true" file="output_loop_detector_202504061454.xml"/>
    <inductionLoop id="937_912_1_detector" lane="937_912_1" pos="-8" friendlyPos="true" file="output_loop_detector_202504061454.xml"/>
    <inductionLoop id="915_912_0_detector" lane="915_912_0" pos="-8" friendlyPos="true" file="output_loop_detector_202504061454.xml"/>
    <inductionLoop id="915_912_1_detector" lane="915_912_1" pos="-8" friendlyPos="true" file="output_loop_detector_202504061454.xml"/>
    <inductionLoop id="915_912_2_detector" lane="915_912_2" pos="-8" friendlyPos="true" file="output_loop_detector_202504061454.xml"/>
    <inductionLoop id="909_912_0_detector" lane="909_912_0" pos="-8" friendlyPos="true" file="output_loop_detector_202504061454.xml"/>
    <inductionLoop id="909_912_1_detector" lane="909_912_1" pos="-8" friendlyPos="true" file="output_loop_detector_202504061454.xml"/>
    <inductionLoop id="909_912_2_detector" lane="909_912_2" pos="-8" friendlyPos="true" file="output_loop_detector_202504061454.xml"/>
    <inductionLoop id="909_912_3_detector" lane="909_912_3" pos="-8" friendlyPos="true" file="output_loop_detector_202504061454.xml"/>
    <inductionLoop id="229_915_0_detector" lane="229_915_0" pos="-8" friendlyPos="true" file="output_loop_detector_202504061454.xml"/>
    <inductionLoop id="12_915_0_detector" lane="12_915_0" pos="-8" friendlyPos="true" file="output_loop_detector_202504061454.xml"/>
    <inductionLoop id="918_915_0_detector" lane="918_915_0" pos="-8" friendlyPos="true" file="output_loop_detector_202504061454.xml"/>
    <inductionLoop id="918_915_1_detector" lane="918_915_1" pos="-8" friendlyPos="true" file="output_loop_detector_202504061454.xml"/>
    <inductionLoop id="912_915_0_detector" lane="912_915_0" pos="-8" friendlyPos="true" file="output_loop_detector_202504061454.xml"/>
    <inductionLoop id="912_915_1_detector" lane="912_915_1" pos="-8" friendlyPos="true" file="output_loop_detector_202504061454.xml"/>
    <inductionLoop id="225_918_0_detector" lane="225_918_0" pos="-8" friendlyPos="true" file="output_loop_detector_202504061454.xml"/>