<?xml version='1.0' encoding='utf-8'?>
<net xmlns:xsi="http://www.w3.org/2001/XMLSchema-instance" version="1.20" junctionCornerDetail="5" limitTurnSpeed="5.50" xsi:noNamespaceSchemaLocation="http://sumo.dlr.de/xsd/net_file.xsd">

    <location netOffset="-377880.74,-3708162.15" convBoundary="0.00,0.00,15165.66,20163.74" origBoundary="-112.315252,33.506513,-112.151745,33.689017" projParameter="+proj=utm +zone=12 +ellps=WGS84 +datum=WGS84 +units=m +no_defs" />

    <edge id=":1_0" function="internal">
        <lane id=":1_0_0" index="0" speed="7.20" length="19.02" shape="13647.52,1850.44 13646.76,1845.34 13644.64,1843.72 13641.15,1845.59 13636.29,1850.94" />
    </edge>
    <edge id=":1_1" function="internal">
        <lane id=":1_1_0" index="0" speed="12.16" length="34.23" shape="13647.52,1850.44 13645.79,1843.73 13640.77,1838.99 13632.46,1836.22 13620.86,1835.41" />
    </edge>
    <edge id=":1_2" function="internal">
        <lane id=":1_2_0" index="0" speed="13.41" length="49.81" shape="13647.52,1850.44 13649.02,1842.77 13653.12,1829.92 13659.06,1815.89 13666.12,1804.65" />
    </edge>
    <edge id=":1_3" function="internal">
        <lane id=":1_3_0" index="0" speed="13.99" length="45.48" shape="13647.52,1850.44 13649.35,1839.48 13655.12,1831.60 13664.84,1826.79 13678.49,1825.05" />
    </edge>
    <edge id=":1_4" function="internal">
        <lane id=":1_4_0" index="0" speed="11.54" length="30.60" shape="13678.66,1837.85 13667.78,1838.75 13660.04,1841.14 13655.42,1845.01 13653.92,1850.37" />
    </edge>
    <edge id=":1_5" function="internal">
        <lane id=":1_5_0" index="0" speed="15.65" length="43.98" shape="13678.66,1837.85 13665.53,1838.93 13654.51,1841.80 13645.60,1846.46 13638.81,1852.91" />
    </edge>
    <edge id=":1_6" function="internal">
        <lane id=":1_6_0" index="0" speed="17.88" length="57.77" shape="13678.62,1834.65 13620.86,1835.41" />
        <lane id=":1_6_1" index="1" speed="17.88" length="57.77" shape="13678.57,1831.45 13620.81,1832.21" />
    </edge>
    <edge id=":1_8" function="internal">
        <lane id=":1_8_0" index="0" speed="9.94" length="12.14" shape="13678.53,1828.25 13668.98,1826.22 13667.25,1824.60" />
    </edge>
    <edge id=":1_26" function="internal">
        <lane id=":1_26_0" index="0" speed="9.94" length="22.83" shape="13667.25,1824.60 13663.14,1820.72 13661.89,1813.09 13666.12,1804.65" />
    </edge>
    <edge id=":1_9" function="internal">
        <lane id=":1_9_0" index="0" speed="5.50" length="9.58" shape="13675.80,1813.03 13674.10,1815.53 13673.97,1817.30 13675.41,1818.34 13678.41,1818.65" />
    </edge>
    <edge id=":1_10" function="internal">
        <lane id=":1_10_0" index="0" speed="13.41" length="43.98" shape="13675.80,1813.03 13666.84,1823.84 13659.91,1833.62 13655.45,1842.44 13653.92,1850.37" />
    </edge>
    <edge id=":1_11" function="internal">
        <lane id=":1_11_0" index="0" speed="13.41" length="54.55" shape="13675.80,1813.03 13638.81,1852.91" />
        <lane id=":1_11_1" index="1" speed="13.41" length="54.55" shape="13673.38,1810.94 13636.29,1850.94" />
        <lane id=":1_11_2" index="2" speed="13.41" length="54.55" shape="13670.96,1808.84 13633.77,1848.97" />
    </edge>
    <edge id=":1_14" function="internal">
        <lane id=":1_14_0" index="0" speed="15.65" length="11.05" shape="13668.54,1806.75 13660.53,1814.37" />
    </edge>
    <edge id=":1_27" function="internal">
        <lane id=":1_27_0" index="0" speed="15.65" length="43.27" shape="13660.53,1814.37 13658.45,1816.34 13647.13,1823.25 13634.57,1827.48 13620.77,1829.01" />
    </edge>
    <edge id=":1_15" function="internal">
        <lane id=":1_15_0" index="0" speed="15.65" length="44.92" shape="13620.60,1816.22 13633.40,1815.09 13644.45,1812.09 13653.74,1807.22 13661.28,1800.47" />
    </edge>
    <edge id=":1_16" function="internal">
        <lane id=":1_16_0" index="0" speed="17.88" length="57.77" shape="13620.64,1819.41 13678.41,1818.65" />
        <lane id=":1_16_1" index="1" speed="17.88" length="57.77" shape="13620.68,1822.61 13678.45,1821.85" />
    </edge>
    <edge id=":1_18" function="internal">
        <lane id=":1_18_0" index="0" speed="13.77" length="18.18" shape="13620.73,1825.81 13633.74,1827.20 13638.32,1829.44" />
    </edge>
    <edge id=":1_19" function="internal">
        <lane id=":1_19_0" index="0" speed="10.02" length="12.38" shape="13620.73,1825.81 13630.27,1827.71 13632.25,1829.47" />
    </edge>
    <edge id=":1_28" function="internal">
        <lane id=":1_28_0" index="0" speed="13.77" length="25.97" shape="13638.32,1829.44 13643.08,1831.76 13648.74,1839.50 13650.72,1850.40" />
    </edge>
    <edge id=":1_29" function="internal">
        <lane id=":1_29_0" index="0" speed="10.02" length="22.25" shape="13632.25,1829.47 13636.19,1832.95 13637.64,1840.42 13633.77,1848.97" />
    </edge>
    <edge id=":1_20" function="internal">
        <lane id=":1_20_0" index="0" speed="5.53" length="9.47" shape="13623.68,1841.10 13625.19,1838.57 13625.23,1836.78 13623.78,1835.73 13620.86,1835.41" />
    </edge>
    <edge id=":1_21" function="internal">
        <lane id=":1_21_0" index="0" speed="13.41" length="55.20" shape="13623.68,1841.10 13661.28,1800.47" />
        <lane id=":1_21_1" index="1" speed="13.41" length="55.20" shape="13626.20,1843.07 13663.70,1802.56" />
        <lane id=":1_21_2" index="2" speed="13.41" length="55.20" shape="13628.72,1845.03 13666.12,1804.65" />
    </edge>
    <edge id=":1_24" function="internal">
        <lane id=":1_24_0" index="0" speed="15.65" length="14.36" shape="13631.25,1847.00 13640.51,1837.55 13641.46,1836.95" />
    </edge>
    <edge id=":1_25" function="internal">
        <lane id=":1_25_0" index="0" speed="8.39" length="4.61" shape="13631.25,1847.00 13634.85,1844.14" />
    </edge>
    <edge id=":1_30" function="internal">
        <lane id=":1_30_0" index="0" speed="15.65" length="39.55" shape="13641.46,1836.95 13651.47,1830.74 13664.13,1826.57 13678.49,1825.05" />
    </edge>
    <edge id=":1_31" function="internal">
        <lane id=":1_31_0" index="0" speed="8.39" length="21.83" shape="13634.85,1844.14 13637.12,1842.34 13643.47,1841.34 13648.58,1844.02 13650.72,1850.40" />
    </edge>
    <edge id=":10_0" function="internal">
        <lane id=":10_0_0" index="0" speed="6.48" length="9.03" shape="12316.47,3600.46 12316.09,3598.01 12315.02,3596.28 12313.25,3595.27 12310.79,3594.98" />
    </edge>
    <edge id=":10_1" function="internal">
        <lane id=":10_1_0" index="0" speed="11.18" length="14.48" shape="12316.47,3600.46 12316.31,3585.97" />
    </edge>
    <edge id=":10_2" function="internal">
        <lane id=":10_2_0" index="0" speed="8.06" length="14.28" shape="12316.47,3600.46 12316.98,3596.59 12318.60,3593.79 12321.34,3592.07 12325.19,3591.42" />
    </edge>
    <edge id=":10_3" function="internal">
        <lane id=":10_3_0" index="0" speed="6.58" length="9.16" shape="12325.27,3594.62 12322.79,3595.04 12321.04,3596.14 12320.00,3597.94 12319.67,3600.42" />
    </edge>
    <edge id=":10_4" function="internal">
        <lane id=":10_4_0" index="0" speed="11.18" length="14.48" shape="12325.27,3594.62 12310.79,3594.98" />
    </edge>
    <edge id=":10_5" function="internal">
        <lane id=":10_5_0" index="0" speed="7.98" length="14.24" shape="12325.27,3594.62 12321.38,3594.16 12318.60,3592.57 12316.90,3589.84 12316.31,3585.97" />
    </edge>
    <edge id=":10_6" function="internal">
        <lane id=":10_6_0" index="0" speed="6.48" length="9.03" shape="12319.51,3585.94 12319.88,3588.39 12320.96,3590.12 12322.73,3591.13 12325.19,3591.42" />
    </edge>
    <edge id=":10_7" function="internal">
        <lane id=":10_7_0" index="0" speed="11.18" length="14.48" shape="12319.51,3585.94 12319.67,3600.42" />
    </edge>
    <edge id=":10_8" function="internal">
        <lane id=":10_8_0" index="0" speed="8.06" length="14.28" shape="12319.51,3585.94 12319.00,3589.81 12317.38,3592.61 12314.64,3594.33 12310.79,3594.98" />
    </edge>
    <edge id=":10_9" function="internal">
        <lane id=":10_9_0" index="0" speed="6.58" length="9.17" shape="12310.71,3591.78 12313.18,3591.36 12314.94,3590.26 12315.98,3588.46 12316.31,3585.97" />
    </edge>
    <edge id=":10_10" function="internal">
        <lane id=":10_10_0" index="0" speed="11.18" length="14.49" shape="12310.71,3591.78 12325.19,3591.42" />
    </edge>
    <edge id=":10_11" function="internal">
        <lane id=":10_11_0" index="0" speed="7.98" length="14.24" shape="12310.71,3591.78 12314.59,3592.24 12317.38,3593.83 12319.07,3596.56 12319.67,3600.42" />
    </edge>
    <edge id=":101_0" function="internal">
        <lane id=":101_0_0" index="0" speed="8.10" length="14.57" shape="8895.83,17915.54 8895.42,17910.30 8894.32,17906.56 8892.55,17904.33 8890.09,17903.61" />
    </edge>
    <edge id=":101_1" function="internal">
        <lane id=":101_1_0" index="0" speed="17.88" length="24.00" shape="8899.03,17915.51 8898.75,17891.51" />
        <lane id=":101_1_1" index="1" speed="17.88" length="24.00" shape="8902.23,17915.47 8901.95,17891.47" />
        <lane id=":101_1_2" index="2" speed="17.88" length="24.00" shape="8905.42,17915.43 8905.15,17891.44" />
        <lane id=":101_1_3" index="3" speed="17.88" length="24.00" shape="8908.62,17915.40 8908.35,17891.40" />
    </edge>
    <edge id=":101_5" function="internal">
        <lane id=":101_5_0" index="0" speed="11.36" length="15.11" shape="8908.62,17915.40 8909.68,17907.33 8913.07,17901.55 8913.30,17901.40" />
    </edge>
    <edge id=":101_16" function="internal">
        <lane id=":101_16_0" index="0" speed="11.36" length="14.56" shape="8913.30,17901.40 8918.78,17898.03 8926.81,17896.79" />
    </edge>
    <edge id=":101_6" function="internal">
        <lane id=":101_6_0" index="0" speed="6.51" length="9.03" shape="8926.96,17909.59 8924.51,17909.97 8922.78,17911.04 8921.75,17912.80 8921.42,17915.25" />
    </edge>
    <edge id=":101_7" function="internal">
        <lane id=":101_7_0" index="0" speed="16.76" length="36.94" shape="8926.92,17906.39 8890.09,17903.61" />
        <lane id=":101_7_1" index="1" speed="16.76" length="36.94" shape="8926.89,17903.19 8890.05,17900.41" />
    </edge>
    <edge id=":101_9" function="internal">
        <lane id=":101_9_0" index="0" speed="9.94" length="22.48" shape="8926.85,17899.99 8918.79,17899.53 8913.03,17897.95 8909.54,17895.24 8908.35,17891.40" />
    </edge>
    <edge id=":101_10" function="internal">
        <lane id=":101_10_0" index="0" speed="7.33" length="11.73" shape="8917.95,17891.29 8918.53,17893.73 8920.20,17895.46 8922.96,17896.48 8926.81,17896.79" />
    </edge>
    <edge id=":101_11" function="internal">
        <lane id=":101_11_0" index="0" speed="17.88" length="24.28" shape="8917.95,17891.29 8918.53,17898.44 8919.69,17903.27 8920.84,17908.10 8921.42,17915.25" />
        <lane id=":101_11_1" index="1" speed="17.88" length="24.28" shape="8914.75,17891.33 8915.33,17898.47 8916.49,17903.31 8917.64,17908.14 8918.22,17915.29" />
    </edge>
    <edge id=":101_13" function="internal">
        <lane id=":101_13_0" index="0" speed="10.54" length="2.27" shape="8911.55,17891.36 8910.82,17893.51" />
    </edge>
    <edge id=":101_17" function="internal">
        <lane id=":101_17_0" index="0" speed="10.54" length="23.12" shape="8910.82,17893.51 8910.24,17895.23 8906.23,17898.02 8899.50,17899.75 8890.05,17900.41" />
    </edge>
    <edge id=":101_14" function="internal">
        <lane id=":101_14_0" index="0" speed="7.33" length="11.73" shape="8890.02,17897.21 8893.86,17896.81 8896.60,17895.73 8898.23,17893.96 8898.75,17891.51" />
    </edge>
    <edge id=":101_15" function="internal">
        <lane id=":101_15_0" index="0" speed="11.84" length="32.30" shape="8890.02,17897.21 8899.48,17898.25 8906.27,17901.62 8910.38,17907.33 8911.82,17915.36" />
    </edge>
    <edge id=":102_0" function="internal">
        <lane id=":102_0_0" index="0" speed="6.76" length="9.62" shape="10503.34,17748.03 10502.88,17745.33 10501.75,17743.41 10499.94,17742.27 10497.45,17741.91" />
    </edge>
    <edge id=":102_1" function="internal">
        <lane id=":102_1_0" index="0" speed="17.88" length="24.55" shape="10503.34,17748.03 10502.84,17723.45" />
        <lane id=":102_1_1" index="1" speed="17.88" length="24.55" shape="10506.54,17747.91 10506.04,17723.41" />
    </edge>
    <edge id=":102_3" function="internal">
        <lane id=":102_3_0" index="0" speed="10.89" length="9.08" shape="10509.74,17747.78 10510.88,17742.34 10513.37,17739.85" />
        <lane id=":102_3_1" index="1" speed="9.86" length="2.80" shape="10512.94,17747.65 10513.61,17744.93" />
    </edge>
    <edge id=":102_16" function="internal">
        <lane id=":102_16_0" index="0" speed="10.89" length="18.67" shape="10513.37,17739.85 10514.80,17738.41 10521.50,17736.01 10530.98,17735.13" />
    </edge>
    <edge id=":102_17" function="internal">
        <lane id=":102_17_0" index="0" speed="9.86" length="19.78" shape="10513.61,17744.93 10513.93,17743.65 10517.27,17740.76 10522.97,17738.99 10531.02,17738.33" />
    </edge>
    <edge id=":102_5" function="internal">
        <lane id=":102_5_0" index="0" speed="7.23" length="11.63" shape="10531.05,17741.53 10527.24,17741.92 10524.55,17743.01 10522.98,17744.79 10522.53,17747.27" />
    </edge>
    <edge id=":102_6" function="internal">
        <lane id=":102_6_0" index="0" speed="11.36" length="29.67" shape="10531.05,17741.53 10522.99,17740.47 10517.20,17737.08 10513.69,17731.37 10512.44,17723.34" />
    </edge>
    <edge id=":102_7" function="internal">
        <lane id=":102_7_0" index="0" speed="8.10" length="14.57" shape="10525.24,17723.19 10525.65,17728.44 10526.75,17732.17 10528.52,17734.40 10530.98,17735.13" />
    </edge>
    <edge id=":102_8" function="internal">
        <lane id=":102_8_0" index="0" speed="17.88" length="24.14" shape="10522.04,17723.23 10522.53,17747.27" />
        <lane id=":102_8_1" index="1" speed="17.88" length="24.14" shape="10518.84,17723.26 10519.33,17747.40" />
        <lane id=":102_8_2" index="2" speed="17.88" length="24.14" shape="10515.64,17723.30 10516.13,17747.52" />
    </edge>
    <edge id=":102_11" function="internal">
        <lane id=":102_11_0" index="0" speed="11.36" length="17.30" shape="10515.64,17723.30 10514.59,17731.36 10511.20,17737.15 10509.11,17738.44" />
    </edge>
    <edge id=":102_18" function="internal">
        <lane id=":102_18_0" index="0" speed="11.36" length="12.38" shape="10509.11,17738.44 10505.49,17740.67 10497.45,17741.91" />
    </edge>
    <edge id=":102_12" function="internal">
        <lane id=":102_12_0" index="0" speed="6.51" length="9.03" shape="10497.31,17729.11 10499.75,17728.73 10501.49,17727.66 10502.52,17725.90 10502.84,17723.45" />
    </edge>
    <edge id=":102_13" function="internal">
        <lane id=":102_13_0" index="0" speed="16.76" length="33.78" shape="10497.35,17732.31 10508.31,17732.68 10516.74,17733.69 10523.88,17734.71 10530.98,17735.13" />
        <lane id=":102_13_1" index="1" speed="16.76" length="33.78" shape="10497.38,17735.51 10508.35,17735.88 10516.78,17736.89 10523.92,17737.91 10531.02,17738.33" />
    </edge>
    <edge id=":102_15" function="internal">
        <lane id=":102_15_0" index="0" speed="10.11" length="22.75" shape="10497.42,17738.71 10505.47,17739.18 10511.27,17740.81 10514.83,17743.59 10516.13,17747.52" />
    </edge>
    <edge id=":103_0" function="internal">
        <lane id=":103_0_0" index="0" speed="7.49" length="12.01" shape="10532.99,17879.10 10529.02,17879.49 10526.17,17880.56 10524.44,17882.32 10523.83,17884.75" />
    </edge>
    <edge id=":103_1" function="internal">
        <lane id=":103_1_0" index="0" speed="15.65" length="33.81" shape="10532.95,17875.90 10499.14,17876.28" />
        <lane id=":103_1_1" index="1" speed="15.65" length="33.81" shape="10532.92,17872.70 10499.10,17873.08" />
    </edge>
    <edge id=":103_3" function="internal">
        <lane id=":103_3_0" index="0" speed="9.48" length="19.88" shape="10532.88,17869.50 10526.27,17869.00 10521.49,17867.35 10518.55,17864.53 10517.45,17860.55" />
    </edge>
    <edge id=":103_4" function="internal">
        <lane id=":103_4_0" index="0" speed="6.74" length="9.55" shape="10527.04,17860.17 10527.50,17862.88 10528.62,17864.80 10530.40,17865.94 10532.84,17866.30" />
    </edge>
    <edge id=":103_5" function="internal">
        <lane id=":103_5_0" index="0" speed="17.88" length="24.77" shape="10527.04,17860.17 10526.78,17867.83 10525.69,17873.36 10524.48,17878.43 10523.83,17884.75" />
        <lane id=":103_5_1" index="1" speed="17.88" length="24.77" shape="10523.84,17860.30 10523.58,17867.89 10522.49,17873.35 10521.28,17878.39 10520.63,17884.69" />
    </edge>
    <edge id=":103_7" function="internal">
        <lane id=":103_7_0" index="0" speed="10.51" length="2.57" shape="10520.65,17860.43 10519.91,17862.89" />
    </edge>
    <edge id=":103_16" function="internal">
        <lane id=":103_16_0" index="0" speed="10.51" length="23.23" shape="10519.91,17862.89 10519.44,17864.47 10515.44,17867.39 10508.65,17869.20 10499.07,17869.88" />
    </edge>
    <edge id=":103_8" function="internal">
        <lane id=":103_8_0" index="0" speed="7.30" length="11.89" shape="10499.03,17866.68 10502.98,17866.29 10505.76,17865.20 10507.39,17863.41 10507.86,17860.94" />
    </edge>
    <edge id=":103_9" function="internal">
        <lane id=":103_9_0" index="0" speed="11.69" length="32.21" shape="10499.03,17866.68 10508.61,17867.71 10515.41,17871.06 10519.41,17876.72 10520.63,17884.69" />
    </edge>
    <edge id=":103_10" function="internal">
        <lane id=":103_10_0" index="0" speed="7.08" length="11.12" shape="10504.63,17884.38 10504.35,17880.81 10503.34,17878.28 10501.60,17876.76 10499.14,17876.28" />
    </edge>
    <edge id=":103_11" function="internal">
        <lane id=":103_11_0" index="0" speed="17.88" length="23.79" shape="10507.83,17884.44 10507.86,17860.94" />
        <lane id=":103_11_1" index="1" speed="17.88" length="23.79" shape="10511.03,17884.51 10511.05,17860.81" />
        <lane id=":103_11_2" index="2" speed="17.88" length="23.79" shape="10514.23,17884.57 10514.25,17860.68" />
        <lane id=":103_11_3" index="3" speed="17.88" length="23.79" shape="10517.43,17884.63 10517.45,17860.55" />
    </edge>
    <edge id=":103_15" function="internal">
        <lane id=":103_15_0" index="0" speed="10.99" length="10.29" shape="10517.43,17884.63 10518.53,17876.67 10519.56,17874.66" />
    </edge>
    <edge id=":103_17" function="internal">
        <lane id=":103_17_0" index="0" speed="10.99" length="16.77" shape="10519.56,17874.66 10521.46,17870.97 10526.23,17867.51 10532.84,17866.30" />
    </edge>
    <edge id=":108_0" function="internal">
        <lane id=":108_0_0" index="0" speed="3.65" length="4.67" shape="12553.90,3724.30 12553.11,3725.51 12552.32,3725.92 12551.51,3725.53 12550.70,3724.34" />
    </edge>
    <edge id=":11_0" function="internal">
        <lane id=":11_0_0" index="0" speed="6.48" length="9.03" shape="12435.29,3597.58 12434.91,3595.13 12433.83,3593.40 12432.07,3592.39 12429.60,3592.10" />
    </edge>
    <edge id=":11_1" function="internal">
        <lane id=":11_1_0" index="0" speed="11.18" length="14.48" shape="12435.29,3597.58 12435.12,3583.10" />
    </edge>
    <edge id=":11_2" function="internal">
        <lane id=":11_2_0" index="0" speed="8.06" length="14.28" shape="12435.29,3597.58 12435.79,3593.71 12437.42,3590.91 12440.15,3589.19 12444.01,3588.55" />
    </edge>
    <edge id=":11_3" function="internal">
        <lane id=":11_3_0" index="0" speed="6.58" length="9.17" shape="12444.09,3591.75 12441.61,3592.16 12439.85,3593.27 12438.81,3595.06 12438.49,3597.55" />
    </edge>
    <edge id=":11_4" function="internal">
        <lane id=":11_4_0" index="0" speed="11.18" length="14.49" shape="12444.09,3591.75 12429.60,3592.10" />
    </edge>
    <edge id=":11_5" function="internal">
        <lane id=":11_5_0" index="0" speed="7.98" length="14.24" shape="12444.09,3591.75 12440.20,3591.29 12437.41,3589.69 12435.72,3586.96 12435.12,3583.10" />
    </edge>
    <edge id=":11_6" function="internal">
        <lane id=":11_6_0" index="0" speed="6.48" length="9.03" shape="12438.32,3583.06 12438.70,3585.51 12439.78,3587.24 12441.54,3588.26 12444.01,3588.55" />
    </edge>
    <edge id=":11_7" function="internal">
        <lane id=":11_7_0" index="0" speed="11.18" length="14.48" shape="12438.32,3583.06 12438.49,3597.55" />
    </edge>
    <edge id=":11_8" function="internal">
        <lane id=":11_8_0" index="0" speed="8.06" length="14.28" shape="12438.32,3583.06 12437.82,3586.94 12436.19,3589.73 12433.46,3591.45 12429.60,3592.10" />
    </edge>
    <edge id=":11_9" function="internal">
        <lane id=":11_9_0" index="0" speed="6.58" length="9.16" shape="12429.53,3588.90 12432.00,3588.49 12433.76,3587.38 12434.80,3585.59 12435.12,3583.10" />
    </edge>
    <edge id=":11_10" function="internal">
        <lane id=":11_10_0" index="0" speed="14.53" length="14.48" shape="12429.53,3588.90 12444.01,3588.55" />
    </edge>
    <edge id=":11_11" function="internal">
        <lane id=":11_11_0" index="0" speed="7.98" length="14.24" shape="12429.53,3588.90 12433.41,3589.36 12436.20,3590.95 12437.89,3593.68 12438.49,3597.55" />
    </edge>
    <edge id=":110_0" function="internal">
        <lane id=":110_0_0" index="0" speed="3.65" length="4.67" shape="8489.44,16443.94 8488.66,16445.15 8487.86,16445.56 8487.06,16445.17 8486.24,16443.98" />
    </edge>
    <edge id=":114_0" function="internal">
        <lane id=":114_0_0" index="0" speed="3.65" length="4.67" shape="14007.77,1014.71 14008.97,1015.50 14009.38,1016.29 14008.99,1017.10 14007.80,1017.91" />
    </edge>
    <edge id=":117_0" function="internal">
        <lane id=":117_0_0" index="0" speed="3.65" length="4.67" shape="7709.54,15997.53 7710.33,15996.33 7711.12,15995.92 7711.93,15996.31 7712.74,15997.50" />
    </edge>
    <edge id=":119_0" function="internal">
        <lane id=":119_0_0" index="0" speed="3.65" length="4.67" shape="7494.42,15999.99 7495.20,15998.78 7496.00,15998.37 7496.80,15998.76 7497.62,15999.95" />
    </edge>
    <edge id=":12_0" function="internal">
        <lane id=":12_0_0" index="0" speed="6.48" length="9.03" shape="12549.23,3594.77 12548.85,3592.32 12547.78,3590.59 12546.01,3589.58 12543.55,3589.29" />
    </edge>
    <edge id=":12_1" function="internal">
        <lane id=":12_1_0" index="0" speed="12.29" length="17.68" shape="12549.23,3594.77 12549.03,3577.08" />
    </edge>
    <edge id=":12_2" function="internal">
        <lane id=":12_2_0" index="0" speed="8.07" length="14.31" shape="12549.23,3594.77 12549.74,3590.89 12551.37,3588.10 12554.12,3586.38 12557.99,3585.73" />
    </edge>
    <edge id=":12_3" function="internal">
        <lane id=":12_3_0" index="0" speed="6.59" length="9.20" shape="12558.07,3588.93 12555.58,3589.34 12553.81,3590.45 12552.76,3592.25 12552.43,3594.73" />
    </edge>
    <edge id=":12_4" function="internal">
        <lane id=":12_4_0" index="0" speed="14.53" length="14.52" shape="12558.07,3588.93 12543.55,3589.29" />
    </edge>
    <edge id=":12_5" function="internal">
        <lane id=":12_5_0" index="0" speed="8.65" length="7.11" shape="12558.07,3588.93 12554.16,3588.27 12551.68,3586.33" />
    </edge>
    <edge id=":12_12" function="internal">
        <lane id=":12_12_0" index="0" speed="8.65" length="9.82" shape="12551.68,3586.33 12551.36,3586.08 12549.64,3582.35 12549.03,3577.08" />
    </edge>
    <edge id=":12_6" function="internal">
        <lane id=":12_6_0" index="0" speed="6.48" length="9.03" shape="12552.23,3577.05 12552.61,3579.50 12553.68,3581.23 12555.45,3582.24 12557.91,3582.53" />
    </edge>
    <edge id=":12_7" function="internal">
        <lane id=":12_7_0" index="0" speed="12.29" length="17.68" shape="12552.23,3577.05 12552.43,3594.73" />
    </edge>
    <edge id=":12_8" function="internal">
        <lane id=":12_8_0" index="0" speed="8.74" length="16.95" shape="12552.23,3577.05 12551.74,3582.32 12550.13,3586.12 12547.40,3588.44 12543.55,3589.29" />
    </edge>
    <edge id=":12_9" function="internal">
        <lane id=":12_9_0" index="0" speed="7.40" length="11.87" shape="12543.47,3586.09 12545.94,3585.47 12547.69,3583.77 12548.72,3580.97 12549.03,3577.08" />
    </edge>
    <edge id=":12_10" function="internal">
        <lane id=":12_10_0" index="0" speed="14.53" length="14.96" shape="12543.47,3586.09 12546.79,3585.50 12549.77,3584.33 12553.22,3583.15 12557.91,3582.53" />
    </edge>
    <edge id=":12_11" function="internal">
        <lane id=":12_11_0" index="0" speed="7.98" length="4.08" shape="12543.47,3586.09 12547.35,3586.54 12547.50,3586.63" />
    </edge>
    <edge id=":12_13" function="internal">
        <lane id=":12_13_0" index="0" speed="7.98" length="10.16" shape="12547.50,3586.63 12550.14,3588.14 12551.83,3590.87 12552.43,3594.73" />
    </edge>
    <edge id=":120_0" function="internal">
        <lane id=":120_0_0" index="0" speed="3.65" length="4.67" shape="11792.10,17050.93 11790.89,17050.14 11790.48,17049.35 11790.87,17048.54 11792.06,17047.73" />
    </edge>
    <edge id=":121_0" function="internal">
        <lane id=":121_0_0" index="0" speed="3.65" length="4.67" shape="7285.18,16399.15 7284.40,16400.36 7283.60,16400.77 7282.80,16400.38 7281.98,16399.19" />
    </edge>
    <edge id=":122_0" function="internal">
        <lane id=":122_0_0" index="0" speed="3.65" length="4.67" shape="7001.10,16187.01 6999.89,16186.22 6999.48,16185.42 6999.88,16184.62 7001.07,16183.81" />
    </edge>
    <edge id=":123_0" function="internal">
        <lane id=":123_0_0" index="0" speed="15.65" length="9.33" shape="7318.91,16022.49 7319.54,16025.44 7322.51,16026.89 7325.58,16028.37 7326.52,16031.39" />
        <lane id=":123_0_1" index="1" speed="15.65" length="9.33" shape="7318.91,16022.49 7319.16,16025.03 7320.98,16026.58 7322.89,16028.15 7323.39,16030.75" />
        <lane id=":123_0_2" index="2" speed="15.65" length="9.33" shape="7318.91,16022.49 7318.75,16024.71 7319.44,16026.27 7320.21,16027.84 7320.25,16030.12" />
        <lane id=":123_0_3" index="3" speed="15.65" length="9.33" shape="7315.85,16021.55 7315.66,16023.86 7316.34,16025.48 7317.09,16027.12 7317.11,16029.48" />
        <lane id=":123_0_4" index="4" speed="15.65" length="9.33" shape="7315.85,16021.55 7315.20,16023.69 7314.78,16025.16 7314.43,16026.65 7313.98,16028.84" />
    </edge>
    <edge id=":123_5" function="internal">
        <lane id=":123_5_0" index="0" speed="15.65" length="8.57" shape="7307.71,16027.56 7307.74,16024.94 7307.03,16023.11 7306.41,16021.29 7306.67,16018.74" />
        <lane id=":123_5_1" index="1" speed="15.65" length="8.57" shape="7310.84,16028.20 7310.85,16025.67 7310.14,16023.90 7309.49,16022.15 7309.73,16019.68" />
        <lane id=":123_5_2" index="2" speed="15.65" length="8.57" shape="7310.84,16028.20 7311.32,16025.92 7311.68,16024.37 7312.11,16022.84 7312.79,16020.61" />
    </edge>
    <edge id=":124_0" function="internal">
        <lane id=":124_0_0" index="0" speed="3.65" length="4.67" shape="8089.36,16448.50 8088.58,16449.71 8087.78,16450.12 8086.98,16449.73 8086.16,16448.54" />
    </edge>
    <edge id=":127_0" function="internal">
        <lane id=":127_0_0" index="0" speed="3.65" length="4.67" shape="12342.34,17468.10 12343.55,17468.89 12343.96,17469.68 12343.57,17470.49 12342.38,17471.30" />
    </edge>
    <edge id=":128_0" function="internal">
        <lane id=":128_0_0" index="0" speed="3.65" length="4.67" shape="11762.83,17477.90 11761.62,17477.12 11761.21,17476.32 11761.60,17475.52 11762.80,17474.71" />
    </edge>
    <edge id=":129_0" function="internal">
        <lane id=":129_0_0" index="0" speed="3.65" length="4.67" shape="15165.64,1807.91 15166.85,1808.70 15167.26,1809.50 15166.87,1810.30 15165.68,1811.11" />
    </edge>
    <edge id=":13_0" function="internal">
        <lane id=":13_0_0" index="0" speed="11.18" length="14.82" shape="13023.79,3580.38 13020.47,3580.92 13017.50,3582.06 13014.09,3583.20 13009.44,3583.76" />
    </edge>
    <edge id=":13_1" function="internal">
        <lane id=":13_1_0" index="0" speed="8.03" length="4.05" shape="13023.79,3580.38 13019.95,3579.88 13019.80,3579.79" />
    </edge>
    <edge id=":13_6" function="internal">
        <lane id=":13_6_0" index="0" speed="8.03" length="10.15" shape="13019.80,3579.79 13017.18,3578.26 13015.48,3575.52 13014.85,3571.67" />
    </edge>
    <edge id=":13_2" function="internal">
        <lane id=":13_2_0" index="0" speed="6.54" length="9.07" shape="13018.05,3571.61 13018.45,3574.07 13019.54,3575.82 13021.30,3576.86 13023.75,3577.18" />
    </edge>
    <edge id=":13_3" function="internal">
        <lane id=":13_3_0" index="0" speed="7.99" length="14.22" shape="13018.05,3571.61 13017.58,3575.48 13015.98,3578.26 13013.25,3579.95 13009.40,3580.56" />
    </edge>
    <edge id=":13_4" function="internal">
        <lane id=":13_4_0" index="0" speed="6.49" length="9.03" shape="13009.36,3577.36 13011.80,3576.97 13013.54,3575.90 13014.55,3574.13 13014.85,3571.67" />
    </edge>
    <edge id=":13_5" function="internal">
        <lane id=":13_5_0" index="0" speed="11.18" length="14.40" shape="13009.36,3577.36 13023.75,3577.18" />
    </edge>
    <edge id=":131_0" function="internal">
        <lane id=":131_0_0" index="0" speed="3.65" length="4.67" shape="7981.23,14947.32 7982.16,14948.43 7982.32,14949.31 7981.71,14949.96 7980.33,14950.39" />
    </edge>
    <edge id=":133_0" function="internal">
        <lane id=":133_0_0" index="0" speed="3.65" length="4.67" shape="12344.48,17736.25 12345.69,17737.04 12346.10,17737.83 12345.71,17738.64 12344.52,17739.45" />
    </edge>
    <edge id=":134_0" function="internal">
        <lane id=":134_0_0" index="0" speed="3.65" length="4.67" shape="11775.94,17745.93 11774.73,17745.14 11774.32,17744.35 11774.72,17743.54 11775.91,17742.73" />
    </edge>
    <edge id=":136_0" function="internal">