<?xml version="1.0" ?>
<routes>
    <vType id="car" type="passenger"/>
    <flow id="812_356" from="812_1" to="1_356" number="13" type="car" end="7200"/>
    <flow id="812_212" from="812_1" to="1_212" number="481" type="car" end="7200"/>
    <flow id="812_364" from="812_1" to="1_364" number="259" type="car" end="7200"/>
    <flow id="212_364" from="212_1" to="1_364" number="45" type="car" end="7200"/>
    <flow id="212_812" from="212_1" to="1_812" number="256" type="car" end="7200"/>
    <flow id="212_356" from="212_1" to="1_356" number="117" type="car" end="7200"/>
    <flow id="364_812" from="364_1" to="1_812" number="52" type="car" end="7200"/>
    <flow id="364_369" from="364_1" to="1_369" number="814" type="car" end="7200"/>
    <flow id="369_212" from="369_1" to="1_212" number="283" type="car" end="7200"/>
    <flow id="369_364" from="369_1" to="1_364" number="2774" type="car" end="7200"/>
    <flow id="92_96" from="92_42" to="42_96" number="1200" type="car" end="7200"/>
    <flow id="91_96" from="91_42" to="42_96" number="800" type="car" end="7200"/>
    <flow id="4921_53" from="4921_54" to="54_53" number="143" type="car" end="7200"/>
    <flow id="4920_53" from="4920_54" to="54_53" number="234" type="car" end="7200"/>
    <flow id="52_4920" from="52_55" to="55_4920" number="422" type="car" end="7200"/>
    <flow id="52_4919" from="52_55" to="55_4919" number="263" type="car" end="7200"/>
    <flow id="62_4920" from="62_59" to="59_4920" number="325" type="car" end="7200"/>
    <flow id="62_4921" from="62_59" to="59_4921" number="614" type="car" end="7200"/>
    <flow id="4919_63" from="4919_60" to="60_63" number="1200" type="car" end="7200"/>
    <flow id="4920_63" from="4920_60" to="60_63" number="800" type="car" end="7200"/>
    <flow id="61_64" from="61_63" to="63_64" number="3000" type="car" end="7200"/>
    <flow id="60_64" from="60_63" to="63_64" number="2000" type="car" end="7200"/>
    <flow id="5121_69" from="5121_71" to="71_69" number="500" type="car" end="7200"/>
    <flow id="5120_69" from="5120_71" to="71_69" number="800" type="car" end="7200"/>
    <flow id="70_5120" from="70_72" to="72_5120" number="600" type="car" end="7200"/>
    <flow id="70_5119" from="70_72" to="72_5119" number="600" type="car" end="7200"/>
    <flow id="79_5120" from="79_76" to="76_5120" number="700" type="car" end="7200"/>
    <flow id="79_5121" from="79_76" to="76_5121" number="1000" type="car" end="7200"/>
    <flow id="5119_80" from="5119_77" to="77_80" number="1200" type="car" end="7200"/>
    <flow id="5120_80" from="5120_77" to="77_80" number="800" type="car" end="7200"/>
    <flow id="78_81" from="78_80" to="80_81" number="3000" type="car" end="7200"/>
    <flow id="77_81" from="77_80" to="80_81" number="2000" type="car" end="7200"/>
    <flow id="90_86" from="90_88" to="88_86" number="500" type="car" end="7200"/>
    <flow id="91_86" from="91_88" to="88_86" number="800" type="car" end="7200"/>
    <flow id="87_91" from="87_89" to="89_91" number="600" type="car" end="7200"/>
    <flow id="87_92" from="87_89" to="89_92" number="600" type="car" end="7200"/>
    <flow id="93_308" from="93_90" to="90_308" number="500" type="car" end="7200"/>
    <flow id="308_91" from="308_90" to="90_91" number="1800" type="car" end="7200"/>
    <flow id="308_88" from="308_90" to="90_88" number="600" type="car" end="7200"/>
    <flow id="91_308" from="91_90" to="90_308" number="1500" type="car" end="7200"/>
    <flow id="90_42" from="90_91" to="91_42" number="800" type="car" end="7200"/>
    <flow id="90_92" from="90_91" to="91_92" number="1000" type="car" end="7200"/>
    <flow id="92_88" from="92_91" to="91_88" number="800" type="car" end="7200"/>
    <flow id="92_90" from="92_91" to="91_90" number="900" type="car" end="7200"/>
    <flow id="89_90" from="89_91" to="91_90" number="600" type="car" end="7200"/>
    <flow id="93_92" from="93_91" to="91_92" number="500" type="car" end="7200"/>
    <flow id="89_4324" from="89_92" to="92_4324" number="600" type="car" end="7200"/>
    <flow id="91_4324" from="91_92" to="92_4324" number="1500" type="car" end="7200"/>
    <flow id="4324_91" from="4324_92" to="92_91" number="1700" type="car" end="7200"/>
    <flow id="4324_42" from="4324_92" to="92_42" number="750" type="car" end="7200"/>
    <flow id="95_91" from="95_93" to="93_91" number="700" type="car" end="7200"/>
    <flow id="95_90" from="95_93" to="93_90" number="1000" type="car" end="7200"/>
    <flow id="94_97" from="94_96" to="96_97" number="3000" type="car" end="7200"/>
    <flow id="42_97" from="42_96" to="96_97" number="2000" type="car" end="7200"/>
    <flow id="250_240" from="250_101" to="101_240" number="87" type="car" end="7200"/>
    <flow id="250_363" from="250_101" to="101_363" number="547" type="car" end="7200"/>
    <flow id="363_250" from="363_101" to="101_250" number="1479" type="car" end="7200"/>
    <flow id="363_240" from="363_101" to="101_240" number="357" type="car" end="7200"/>
    <flow id="239_250" from="239_101" to="101_250" number="161" type="car" end="7200"/>
    <flow id="239_240" from="239_101" to="101_240" number="130" type="car" end="7200"/>
    <flow id="239_363" from="239_101" to="101_363" number="512" type="car" end="7200"/>
    <flow id="3775_103" from="3775_102" to="102_103" number="533" type="car" end="7200"/>
    <flow id="3775_251" from="3775_102" to="102_251" number="348" type="car" end="7200"/>
    <flow id="103_251" from="103_102" to="102_251" number="1003" type="car" end="7200"/>
    <flow id="103_3775" from="103_102" to="102_3775" number="1048" type="car" end="7200"/>
    <flow id="211_103" from="211_102" to="102_103" number="323" type="car" end="7200"/>
    <flow id="211_251" from="211_102" to="102_251" number="446" type="car" end="7200"/>
    <flow id="211_3775" from="211_102" to="102_3775" number="200" type="car" end="7200"/>
    <flow id="102_215" from="102_103" to="103_215" number="161" type="car" end="7200"/>
    <flow id="102_277" from="102_103" to="103_277" number="697" type="car" end="7200"/>
    <flow id="277_102" from="277_103" to="103_102" number="1533" type="car" end="7200"/>
    <flow id="277_215" from="277_103" to="103_215" number="418" type="car" end="7200"/>
    <flow id="216_102" from="216_103" to="103_102" number="511" type="car" end="7200"/>
    <flow id="216_215" from="216_103" to="103_215" number="141" type="car" end="7200"/>
    <flow id="216_277" from="216_103" to="103_277" number="395" type="car" end="7200"/>
    <flow id="4450_101" from="4450_250" to="250_101" number="388" type="car" end="7200"/>
    <flow id="4450_243" from="4450_250" to="250_243" number="270" type="car" end="7200"/>
    <flow id="101_243" from="101_250" to="250_243" number="1075" type="car" end="7200"/>
    <flow id="101_4450" from="101_250" to="250_4450" number="565" type="car" end="7200"/>
    <flow id="242_101" from="242_250" to="250_101" number="246" type="car" end="7200"/>
    <flow id="242_243" from="242_250" to="250_243" number="160" type="car" end="7200"/>
    <flow id="101_382" from="101_363" to="363_382" number="163" type="car" end="7200"/>
    <flow id="101_4550" from="101_363" to="363_4550" number="896" type="car" end="7200"/>
    <flow id="4550_101" from="4550_363" to="363_101" number="1742" type="car" end="7200"/>
    <flow id="4550_382" from="4550_363" to="363_382" number="147" type="car" end="7200"/>
    <flow id="382_4550" from="382_363" to="363_4550" number="120" type="car" end="7200"/>
    <flow id="382_101" from="382_363" to="363_101" number="94" type="car" end="7200"/>
    <flow id="8_2" from="8_750" to="750_2" number="50" type="car" end="7200"/>
    <flow id="8_775" from="8_750" to="750_775" number="50" type="car" end="7200"/>
    <flow id="775_114" from="775_750" to="750_114" number="50" type="car" end="7200"/>
    <flow id="775_8" from="775_750" to="750_8" number="50" type="car" end="7200"/>
    <flow id="2_775" from="2_750" to="750_775" number="50" type="car" end="7200"/>
    <flow id="2_114" from="2_750" to="750_114" number="50" type="car" end="7200"/>
    <flow id="114_2" from="114_750" to="750_2" number="50" type="car" end="7200"/>
    <flow id="750_362" from="750_775" to="775_362" number="150" type="car" end="7200"/>
    <flow id="750_825" from="750_775" to="775_825" number="700" type="car" end="7200"/>
    <flow id="825_361" from="825_775" to="775_361" number="20" type="car" end="7200"/>
    <flow id="825_750" from="825_775" to="775_750" number="700" type="car" end="7200"/>
    <flow id="825_362" from="825_775" to="775_362" number="150" type="car" end="7200"/>
    <flow id="362_361" from="362_775" to="775_361" number="50" type="car" end="7200"/>
    <flow id="362_750" from="362_775" to="775_750" number="50" type="car" end="7200"/>
    <flow id="361_362" from="361_775" to="775_362" number="50" type="car" end="7200"/>
    <flow id="361_825" from="361_775" to="775_825" number="50" type="car" end="7200"/>
    <flow id="2_2000" from="2_812" to="812_2000" number="5" type="car" end="7200"/>
    <flow id="2_5" from="2_812" to="812_5" number="25" type="car" end="7200"/>
    <flow id="2_1" from="2_812" to="812_1" number="25" type="car" end="7200"/>
    <flow id="5_1" from="5_812" to="812_1" number="25" type="car" end="7200"/>
    <flow id="5_2" from="5_812" to="812_2" number="25" type="car" end="7200"/>
    <flow id="2000_5" from="2000_812" to="812_5" number="25" type="car" end="7200"/>
    <flow id="2000_1" from="2000_812" to="812_1" number="25" type="car" end="7200"/>
    <flow id="1_2" from="1_812" to="812_2" number="25" type="car" end="7200"/>
    <flow id="1_2000" from="1_812" to="812_2000" number="25" type="car" end="7200"/>
    <flow id="775_365" from="775_825" to="825_365" number="10" type="car" end="7200"/>
    <flow id="775_18" from="775_825" to="825_18" number="800" type="car" end="7200"/>
    <flow id="775_366" from="775_825" to="825_366" number="200" type="car" end="7200"/>
    <flow id="18_366" from="18_825" to="825_366" number="150" type="car" end="7200"/>
    <flow id="18_775" from="18_825" to="825_775" number="800" type="car" end="7200"/>
    <flow id="18_365" from="18_825" to="825_365" number="10" type="car" end="7200"/>
    <flow id="365_366" from="365_825" to="825_366" number="25" type="car" end="7200"/>
    <flow id="366_775" from="366_825" to="825_775" number="100" type="car" end="7200"/>
    <flow id="366_365" from="366_825" to="825_365" number="10" type="car" end="7200"/>
    <flow id="248_13" from="248_909" to="909_13" number="100" type="car" end="7200"/>
    <flow id="13_248" from="13_909" to="909_248" number="100" type="car" end="7200"/>
    <flow id="912_13" from="912_909" to="909_13" number="50" type="car" end="7200"/>
    <flow id="912_19" from="912_909" to="909_19" number="500" type="car" end="7200"/>
    <flow id="19_248" from="19_909" to="909_248" number="50" type="car" end="7200"/>
    <flow id="19_912" from="19_909" to="909_912" number="600" type="car" end="7200"/>
    <flow id="937_909" from="937_912" to="912_909" number="74" type="car" end="7200"/>
    <flow id="915_937" from="915_912" to="912_937" number="30" type="car" end="7200"/>
    <flow id="915_909" from="915_912" to="912_909" number="489" type="car" end="7200"/>
    <flow id="909_915" from="909_912" to="912_915" number="700" type="car" end="7200"/>
    <flow id="909_937" from="909_912" to="912_937" number="66" type="car" end="7200"/>
    <flow id="225_11" from="225_918" to="918_11" number="100" type="car" end="7200"/>
    <flow id="11_225" from="11_918" to="918_225" number="100" type="car" end="7200"/>
    <flow id="919_915" from="919_918" to="918_915" number="500" type="car" end="7200"/>
    <flow id="915_919" from="915_918" to="918_919" number="600" type="car" end="7200"/>
    <flow id="220_10" from="220_919" to="919_10" number="101" type="car" end="7200"/>
    <flow id="10_220" from="10_919" to="919_220" number="28" type="car" end="7200"/>
    <flow id="921_918" from="921_919" to="919_918" number="519" type="car" end="7200"/>
    <flow id="918_921" from="918_919" to="919_921" number="588" type="car" end="7200"/>
    <flow id="200_9" from="200_921" to="921_9" number="100" type="car" end="7200"/>
    <flow id="9_200" from="9_921" to="921_200" number="100" type="car" end="7200"/>
    <flow id="2100_919" from="2100_921" to="921_919" number="500" type="car" end="7200"/>
    <flow id="919_2100" from="919_921" to="921_2100" number="600" type="car" end="7200"/>
    <flow id="912_12" from="912_937" to="937_12" number="50" type="car" end="7200"/>
    <flow id="912_14" from="912_937" to="937_14" number="50" type="car" end="7200"/>
    <flow id="14_13" from="14_937" to="937_13" number="25" type="car" end="7200"/>
    <flow id="14_912" from="14_937" to="937_912" number="50" type="car" end="7200"/>
    <flow id="12_14" from="12_937" to="937_14" number="7" type="car" end="7200"/>
    <flow id="12_13" from="12_937" to="937_13" number="41" type="car" end="7200"/>
    <flow id="13_912" from="13_937" to="937_912" number="6" type="car" end="7200"/>
    <flow id="13_12" from="13_937" to="937_12" number="36" type="car" end="7200"/>
    <flow id="2050_2109" from="2050_2100" to="2100_2109" number="59" type="car" end="7200"/>
    <flow id="2050_2124" from="2050_2100" to="2100_2124" number="585" type="car" end="7200"/>
    <flow id="2050_921" from="2050_2100" to="2100_921" number="119" type="car" end="7200"/>
    <flow id="2124_921" from="2124_2100" to="2100_921" number="68" type="car" end="7200"/>
    <flow id="2124_2050" from="2124_2100" to="2100_2050" number="314" type="car" end="7200"/>
    <flow id="2109_2124" from="2109_2100" to="2100_2124" number="222" type="car" end="7200"/>
    <flow id="2109_921" from="2109_2100" to="2100_921" number="713" type="car" end="7200"/>
    <flow id="921_2050" from="921_2100" to="2100_2050" number="35" type="car" end="7200"/>
    <flow id="921_2109" from="921_2100" to="2100_2109" number="231" type="car" end="7200"/>
    <flow id="2100_214" from="2100_2124" to="2124_214" number="1" type="car" end="7200"/>
    <flow id="2100_2125" from="2100_2124" to="2124_2125" number="857" type="car" end="7200"/>
    <flow id="2125_287" from="2125_2124" to="2124_287" number="26" type="car" end="7200"/>
    <flow id="2125_2100" from="2125_2124" to="2124_2100" number="708" type="car" end="7200"/>
    <flow id="214_2125" from="214_2124" to="2124_2125" number="1" type="car" end="7200"/>
    <flow id="287_2100" from="287_2124" to="2124_2100" number="136" type="car" end="7200"/>
    <flow id="287_214" from="287_2124" to="2124_214" number="1" type="car" end="7200"/>
    <flow id="287_2125" from="287_2124" to="2124_2125" number="284" type="car" end="7200"/>
    <flow id="2124_2137" from="2124_2125" to="2125_2137" number="150" type="car" end="7200"/>
    <flow id="2124_40" from="2124_2125" to="2125_40" number="800" type="car" end="7200"/>
    <flow id="40_14" from="40_2125" to="2125_14" number="50" type="car" end="7200"/>
    <flow id="40_2124" from="40_2125" to="2125_2124" number="800" type="car" end="7200"/>
    <flow id="2137_40" from="2137_2125" to="2125_40" number="150" type="car" end="7200"/>
    <flow id="2137_14" from="2137_2125" to="2125_14" number="50" type="car" end="7200"/>
    <flow id="2137_2124" from="2137_2125" to="2125_2124" number="200" type="car" end="7200"/>
    <flow id="14_2124" from="14_2125" to="2125_2124" number="50" type="car" end="7200"/>
    <flow id="14_2137" from="14_2125" to="2125_2137" number="100" type="car" end="7200"/>
    <flow id="2900_120" from="2900_2950" to="2950_120" number="150" type="car" end="7200"/>
    <flow id="2900_2975" from="2900_2950" to="2950_2975" number="1200" type="car" end="7200"/>
    <flow id="2900_307" from="2900_2950" to="2950_307" number="50" type="car" end="7200"/>
    <flow id="2975_307" from="2975_2950" to="2950_307" number="60" type="car" end="7200"/>
    <flow id="2975_2900" from="2975_2950" to="2950_2900" number="1056" type="car" end="7200"/>
    <flow id="2975_120" from="2975_2950" to="2950_120" number="36" type="car" end="7200"/>
    <flow id="120_2975" from="120_2950" to="2950_2975" number="5" type="car" end="7200"/>
    <flow id="120_307" from="120_2950" to="2950_307" number="12" type="car" end="7200"/>
    <flow id="120_2900" from="120_2950" to="2950_2900" number="36" type="car" end="7200"/>
    <flow id="307_2900" from="307_2950" to="2950_2900" number="12" type="car" end="7200"/>
    <flow id="307_120" from="307_2950" to="2950_120" number="12" type="car" end="7200"/>
    <flow id="307_2975" from="307_2950" to="2950_2975" number="96" type="car" end="7200"/>
    <flow id="2950_128" from="2950_2975" to="2975_128" number="50" type="car" end="7200"/>
    <flow id="2950_3000" from="2950_2975" to="2975_3000" number="1200" type="car" end="7200"/>
    <flow id="3000_127" from="3000_2975" to="2975_127" number="50" type="car" end="7200"/>
    <flow id="3000_2950" from="3000_2975" to="2975_2950" number="1050" type="car" end="7200"/>
    <flow id="3000_128" from="3000_2975" to="2975_128" number="50" type="car" end="7200"/>
    <flow id="128_3000" from="128_2975" to="2975_3000" number="50" type="car" end="7200"/>
    <flow id="128_127" from="128_2975" to="2975_127" number="100" type="car" end="7200"/>
    <flow id="128_2950" from="128_2975" to="2975_2950" number="50" type="car" end="7200"/>
    <flow id="127_2950" from="127_2975" to="2975_2950" number="50" type="car" end="7200"/>
    <flow id="127_128" from="127_2975" to="2975_128" number="100" type="car" end="7200"/>
    <flow id="127_3000" from="127_2975" to="2975_3000" number="50" type="car" end="7200"/>
    <flow id="2975_3001" from="2975_3000" to="3000_3001" number="455" type="car" end="7200"/>
    <flow id="2975_133" from="2975_3000" to="3000_133" number="389" type="car" end="7200"/>
    <flow id="3001_133" from="3001_3000" to="3000_133" number="423" type="car" end="7200"/>
    <flow id="3001_2975" from="3001_3000" to="3000_2975" number="1110" type="car" end="7200"/>
    <flow id="134_3001" from="134_3000" to="3000_3001" number="181" type="car" end="7200"/>
    <flow id="134_133" from="134_3000" to="3000_133" number="555" type="car" end="7200"/>
    <flow id="134_2975" from="134_3000" to="3000_2975" number="389" type="car" end="7200"/>
    <flow id="3000_137" from="3000_3001" to="3001_137" number="268" type="car" end="7200"/>
    <flow id="3000_3025" from="3000_3001" to="3001_3025" number="489" type="car" end="7200"/>
    <flow id="3025_3000" from="3025_3001" to="3001_3000" number="868" type="car" end="7200"/>
    <flow id="3025_137" from="3025_3001" to="3001_137" number="336" type="car" end="7200"/>
    <flow id="136_3000" from="136_3001" to="3001_3000" number="346" type="car" end="7200"/>
    <flow id="136_137" from="136_3001" to="3001_137" number="427" type="car" end="7200"/>
    <flow id="136_3025" from="136_3001" to="3001_3025" number="173" type="car" end="7200"/>
    <flow id="3001_140" from="3001_3025" to="3025_140" number="75" type="car" end="7200"/>
    <flow id="3001_3050" from="3001_3025" to="3025_3050" number="1115" type="car" end="7200"/>
    <flow id="3001_139" from="3001_3025" to="3025_139" number="75" type="car" end="7200"/>
    <flow id="3050_139" from="3050_3025" to="3025_139" number="50" type="car" end="7200"/>
    <flow id="3050_3001" from="3050_3025" to="3025_3001" number="900" type="car" end="7200"/>
    <flow id="3050_140" from="3050_3025" to="3025_140" number="50" type="car" end="7200"/>
    <flow id="140_3050" from="140_3025" to="3025_3050" number="75" type="car" end="7200"/>
    <flow id="139_3001" from="139_3025" to="3025_3001" number="75" type="car" end="7200"/>
    <flow id="3025_143" from="3025_3050" to="3050_143" number="35" type="car" end="7200"/>
    <flow id="3025_7" from="3025_3050" to="3050_7" number="1266" type="car" end="7200"/>
    <flow id="7_142" from="7_3050" to="3050_142" number="74" type="car" end="7200"/>
    <flow id="7_3025" from="7_3050" to="3050_3025" number="898" type="car" end="7200"/>
    <flow id="143_7" from="143_3050" to="3050_7" number="2" type="car" end="7200"/>
    <flow id="143_142" from="143_3050" to="3050_142" number="7" type="car" end="7200"/>
    <flow id="142_3025" from="142_3050" to="3050_3025" number="76" type="car" end="7200"/>
    <flow id="142_143" from="142_3050" to="3050_143" number="5" type="car" end="7200"/>
    <flow id="3375_17" from="3375_3350" to="3350_17" number="1" type="car" end="7200"/>
    <flow id="3375_3325" from="3375_3350" to="3350_3325" number="2" type="car" end="7200"/>
    <flow id="3350_327" from="3350_3375" to="3375_327" number="47" type="car" end="7200"/>
    <flow id="3350_154" from="3350_3375" to="3375_154" number="640" type="car" end="7200"/>
    <flow id="154_181" from="154_3375" to="3375_181" number="19" type="car" end="7200"/>
    <flow id="154_3350" from="154_3375" to="3375_3350" number="592" type="car" end="7200"/>
    <flow id="327_154" from="327_3375" to="3375_154" number="36" type="car" end="7200"/>
    <flow id="327_181" from="327_3375" to="3375_181" number="8" type="car" end="7200"/>
    <flow id="181_3350" from="181_3375" to="3375_3350" number="95" type="car" end="7200"/>
    <flow id="181_327" from="181_3375" to="3375_327" number="4" type="car" end="7200"/>
    <flow id="154_254" from="154_3425" to="3425_254" number="81" type="car" end="7200"/>
    <flow id="154_3450" from="154_3425" to="3425_3450" number="727" type="car" end="7200"/>
    <flow id="3450_154" from="3450_3425" to="3425_154" number="616" type="car" end="7200"/>
    <flow id="254_3450" from="254_3425" to="3425_3450" number="17" type="car" end="7200"/>
    <flow id="254_154" from="254_3425" to="3425_154" number="22" type="car" end="7200"/>
    <flow id="3725_300" from="3725_3750" to="3750_300" number="50" type="car" end="7200"/>
    <flow id="3725_3775" from="3725_3750" to="3750_3775" number="1300" type="car" end="7200"/>
    <flow id="3775_206" from="3775_3750" to="3750_206" number="100" type="car" end="7200"/>
    <flow id="3775_3725" from="3775_3750" to="3750_3725" number="900" type="car" end="7200"/>
    <flow id="300_3775" from="300_3750" to="3750_3775" number="100" type="car" end="7200"/>
    <flow id="300_206" from="300_3750" to="3750_206" number="50" type="car" end="7200"/>
    <flow id="300_3725" from="300_3750" to="3750_3725" number="50" type="car" end="7200"/>
    <flow id="206_3725" from="206_3750" to="3750_3725" number="50" type="car" end="7200"/>
    <flow id="206_300" from="206_3750" to="3750_300" number="50" type="car" end="7200"/>
    <flow id="206_3775" from="206_3750" to="3750_3775" number="150" type="car" end="7200"/>
    <flow id="38_4306" from="38_4300" to="4300_4306" number="107" type="car" end="7200"/>
    <flow id="38_4325" from="38_4300" to="4300_4325" number="352" type="car" end="7200"/>
    <flow id="38_3618" from="38_4300" to="4300_3618" number="270" type="car" end="7200"/>
    <flow id="4325_3618" from="4325_4300" to="4300_3618" number="138" type="car" end="7200"/>
    <flow id="4325_38" from="4325_4300" to="4300_38" number="296" type="car" end="7200"/>
    <flow id="4325_4306" from="4325_4300" to="4300_4306" number="38" type="car" end="7200"/>
    <flow id="4306_4325" from="4306_4300" to="4300_4325" number="88" type="car" end="7200"/>
    <flow id="4306_3618" from="4306_4300" to="4300_3618" number="1610" type="car" end="7200"/>
    <flow id="4306_38" from="4306_4300" to="4300_38" number="72" type="car" end="7200"/>
    <flow id="3618_38" from="3618_4300" to="4300_38" number="143" type="car" end="7200"/>
    <flow id="3618_4306" from="3618_4300" to="4300_4306" number="754" type="car" end="7200"/>
    <flow id="3618_4325" from="3618_4300" to="4300_4325" number="94" type="car" end="7200"/>
    <flow id="29_4312" from="29_4306" to="4306_4312" number="159" type="car" end="7200"/>
    <flow id="29_46" from="29_4306" to="4306_46" number="69" type="car" end="7200"/>
    <flow id="46_4300" from="46_4306" to="4306_4300" number="143" type="car" end="7200"/>
    <flow id="46_29" from="46_4306" to="4306_29" number="76" type="car" end="7200"/>
    <flow id="46_4312" from="46_4306" to="4306_4312" number="206" type="car" end="7200"/>
    <flow id="4312_46" from="4312_4306" to="4306_46" number="170" type="car" end="7200"/>
    <flow id="4312_4300" from="4312_4306" to="4306_4300" number="1500" type="car" end="7200"/>
    <flow id="4300_29" from="4300_4306" to="4306_29" number="226" type="car" end="7200"/>
    <flow id="4300_4312" from="4300_4306" to="4306_4312" number="1800" type="car" end="7200"/>
    <flow id="43_4324" from="43_4312" to="4312_4324" number="134" type="car" end="7200"/>
    <flow id="43_4306" from="43_4312" to="4312_4306" number="105" type="car" end="7200"/>
    <flow id="4324_4306" from="4324_4312" to="4312_4306" number="1500" type="car" end="7200"/>
    <flow id="4306_43" from="4306_4312" to="4312_43" number="183" type="car" end="7200"/>
    <flow id="4306_4324" from="4306_4312" to="4312_4324" number="1850" type="car" end="7200"/>
    <flow id="32_92" from="32_4324" to="4324_92" number="404" type="car" end="7200"/>
    <flow id="32_4374" from="32_4324" to="4324_4374" number="628" type="car" end="7200"/>
    <flow id="32_4312" from="32_4324" to="4324_4312" number="195" type="car" end="7200"/>
    <flow id="4374_4312" from="4374_4324" to="4324_4312" number="199" type="car" end="7200"/>
    <flow id="4374_32" from="4374_4324" to="4324_32" number="505" type="car" end="7200"/>
    <flow id="4374_92" from="4374_4324" to="4324_92" number="379" type="car" end="7200"/>
    <flow id="92_4374" from="92_4324" to="4324_4374" number="413" type="car" end="7200"/>
    <flow id="92_4312" from="92_4324" to="4324_4312" number="1463" type="car" end="7200"/>
    <flow id="4312_32" from="4312_4324" to="4324_32" number="226" type="car" end="7200"/>
    <flow id="4312_92" from="4312_4324" to="4324_92" number="1650" type="car" end="7200"/>
    <flow id="4300_353" from="4300_4325" to="4325_353" number="250" type="car" end="7200"/>
    <flow id="4300_4350" from="4300_4325" to="4325_4350" number="650" type="car" end="7200"/>
    <flow id="4300_350" from="4300_4325" to="4325_350" number="50" type="car" end="7200"/>
    <flow id="4350_350" from="4350_4325" to="4325_350" number="50" type="car" end="7200"/>
    <flow id="4350_4300" from="4350_4325" to="4325_4300" number="700" type="car" end="7200"/>
    <flow id="4350_353" from="4350_4325" to="4325_353" number="150" type="car" end="7200"/>
    <flow id="353_4350" from="353_4325" to="4325_4350" number="200" type="car" end="7200"/>
    <flow id="353_350" from="353_4325" to="4325_350" number="20" type="car" end="7200"/>
    <flow id="353_4300" from="353_4325" to="4325_4300" number="150" type="car" end="7200"/>
    <flow id="350_4300" from="350_4325" to="4325_4300" number="50" type="car" end="7200"/>
    <flow id="350_353" from="350_4325" to="4325_353" number="20" type="car" end="7200"/>
    <flow id="350_4350" from="350_4325" to="4325_4350" number="75" type="car" end="7200"/>
    <flow id="4325_358" from="4325_4350" to="4350_358" number="150" type="car" end="7200"/>
    <flow id="4325_4400" from="4325_4350" to="4350_4400" number="750" type="car" end="7200"/>
    <flow id="4400_4325" from="4400_4350" to="4350_4325" number="750" type="car" end="7200"/>
    <flow id="4400_358" from="4400_4350" to="4350_358" number="200" type="car" end="7200"/>
    <flow id="358_4400" from="358_4350" to="4350_4400" number="200" type="car" end="7200"/>
    <flow id="358_4325" from="358_4350" to="4350_4325" number="150" type="car" end="7200"/>
    <flow id="4350_4406" from="4350_4400" to="4400_4406" number="62" type="car" end="7200"/>
    <flow id="4350_4450" from="4350_4400" to="4400_4450" number="250" type="car" end="7200"/>
    <flow id="4450_3700" from="4450_4400" to="4400_3700" number="102" type="car" end="7200"/>
    <flow id="4450_4350" from="4450_4400" to="4400_4350" number="374" type="car" end="7200"/>
    <flow id="4406_4450" from="4406_4400" to="4400_4450" number="53" type="car" end="7200"/>
    <flow id="4406_3700" from="4406_4400" to="4400_3700" number="723" type="car" end="7200"/>
    <flow id="3700_4350" from="3700_4400" to="4400_4350" number="88" type="car" end="7200"/>
    <flow id="3700_4406" from="3700_4400" to="4400_4406" number="395" type="car" end="7200"/>
    <flow id="280_4412" from="280_4406" to="4406_4412" number="25" type="car" end="7200"/>
    <flow id="280_110" from="280_4406" to="4406_110" number="5" type="car" end="7200"/>
    <flow id="110_4400" from="110_4406" to="4406_4400" number="25" type="car" end="7200"/>
    <flow id="110_280" from="110_4406" to="4406_280" number="5" type="car" end="7200"/>
    <flow id="4412_110" from="4412_4406" to="4406_110" number="25" type="car" end="7200"/>
    <flow id="4412_4400" from="4412_4406" to="4406_4400" number="900" type="car" end="7200"/>
    <flow id="4400_280" from="4400_4406" to="4406_280" number="50" type="car" end="7200"/>
    <flow id="4400_4412" from="4400_4406" to="4406_4412" number="1000" type="car" end="7200"/>
    <flow id="124_4406" from="124_4412" to="4412_4406" number="28" type="car" end="7200"/>
    <flow id="124_4417" from="124_4412" to="4412_4417" number="72" type="car" end="7200"/>
    <flow id="4417_124" from="4417_4412" to="4412_124" number="147" type="car" end="7200"/>
    <flow id="4417_4406" from="4417_4412" to="4412_4406" number="747" type="car" end="7200"/>
    <flow id="4406_4417" from="4406_4412" to="4412_4417" number="873" type="car" end="7200"/>
    <flow id="255_4419" from="255_4417" to="4417_4419" number="604" type="car" end="7200"/>
    <flow id="255_4412" from="255_4417" to="4417_4412" number="360" type="car" end="7200"/>
    <flow id="4419_269" from="4419_4417" to="4417_269" number="778" type="car" end="7200"/>
    <flow id="4419_4412" from="4419_4417" to="4417_4412" number="741" type="car" end="7200"/>
    <flow id="4412_4419" from="4412_4417" to="4417_4419" number="1038" type="car" end="7200"/>
    <flow id="4412_269" from="4412_4417" to="4417_269" number="116" type="car" end="7200"/>