<?xml version="1.0" ?>
<connections>
    <connection from="356_1" to="1_812" fromLane="0" toLane="0" dir="r"/>
    <connection from="356_1" to="1_369" fromLane="0" toLane="1" dir="r"/>
    <connection from="356_1" to="1_212" fromLane="0" toLane="2" dir="l"/>
    <connection from="356_1" to="1_364" fromLane="0" toLane="2" dir="l"/>
    <connection from="812_1" to="1_364" fromLane="0" toLane="0" dir="r"/>
    <connection from="812_1" to="1_212" fromLane="1" toLane="0" dir="s"/>
    <connection from="812_1" to="1_212" fromLane="2" toLane="1" dir="s"/>
    <connection from="812_1" to="1_369" fromLane="3" toLane="2" dir="l"/>
    <connection from="812_1" to="1_356" fromLane="3" toLane="1" dir="l"/>
    <connection from="212_1" to="1_369" fromLane="0" toLane="0" dir="r"/>
    <connection from="212_1" to="1_356" fromLane="0" toLane="0" dir="r"/>
    <connection from="212_1" to="1_812" fromLane="1" toLane="0" dir="s"/>
    <connection from="212_1" to="1_812" fromLane="2" toLane="1" dir="s"/>
    <connection from="212_1" to="1_364" fromLane="3" toLane="2" dir="l"/>
    <connection from="364_1" to="1_356" fromLane="0" toLane="0" dir="r"/>
    <connection from="364_1" to="1_212" fromLane="0" toLane="0" dir="r"/>
    <connection from="364_1" to="1_369" fromLane="0" toLane="0" dir="s"/>
    <connection from="364_1" to="1_369" fromLane="1" toLane="1" dir="s"/>
    <connection from="364_1" to="1_369" fromLane="2" toLane="2" dir="s"/>
    <connection from="364_1" to="1_812" fromLane="3" toLane="2" dir="l"/>
    <connection from="369_1" to="1_812" fromLane="0" toLane="0" dir="r"/>
    <connection from="369_1" to="1_364" fromLane="0" toLane="0" dir="s"/>
    <connection from="369_1" to="1_364" fromLane="1" toLane="1" dir="s"/>
    <connection from="369_1" to="1_364" fromLane="2" toLane="2" dir="s"/>
    <connection from="369_1" to="1_356" fromLane="3" toLane="1" dir="l"/>
    <connection from="369_1" to="1_212" fromLane="3" toLane="2" dir="l"/>
    <connection from="921_9" to="9_10" fromLane="0" toLane="0" dir="r"/>
    <connection from="921_9" to="9_217" fromLane="0" toLane="0" dir="s"/>
    <connection from="921_9" to="9_287" fromLane="0" toLane="0" dir="l"/>
    <connection from="217_9" to="9_287" fromLane="0" toLane="0" dir="r"/>
    <connection from="217_9" to="9_921" fromLane="0" toLane="0" dir="s"/>
    <connection from="217_9" to="9_10" fromLane="0" toLane="0" dir="l"/>
    <connection from="287_9" to="9_921" fromLane="0" toLane="0" dir="r"/>
    <connection from="287_9" to="9_10" fromLane="0" toLane="0" dir="s"/>
    <connection from="287_9" to="9_217" fromLane="0" toLane="0" dir="l"/>
    <connection from="10_9" to="9_217" fromLane="0" toLane="0" dir="r"/>
    <connection from="10_9" to="9_287" fromLane="0" toLane="0" dir="s"/>
    <connection from="10_9" to="9_921" fromLane="0" toLane="0" dir="l"/>
    <connection from="919_10" to="10_11" fromLane="0" toLane="0" dir="r"/>
    <connection from="919_10" to="10_301" fromLane="0" toLane="0" dir="s"/>
    <connection from="919_10" to="10_9" fromLane="0" toLane="0" dir="l"/>
    <connection from="301_10" to="10_9" fromLane="0" toLane="0" dir="r"/>
    <connection from="301_10" to="10_919" fromLane="0" toLane="0" dir="s"/>
    <connection from="301_10" to="10_11" fromLane="0" toLane="0" dir="l"/>
    <connection from="9_10" to="10_919" fromLane="0" toLane="0" dir="r"/>
    <connection from="9_10" to="10_11" fromLane="0" toLane="0" dir="s"/>
    <connection from="9_10" to="10_301" fromLane="0" toLane="0" dir="l"/>
    <connection from="11_10" to="10_301" fromLane="0" toLane="0" dir="r"/>
    <connection from="11_10" to="10_9" fromLane="0" toLane="0" dir="s"/>
    <connection from="11_10" to="10_919" fromLane="0" toLane="0" dir="l"/>
    <connection from="918_11" to="11_12" fromLane="0" toLane="0" dir="r"/>
    <connection from="918_11" to="11_313" fromLane="0" toLane="0" dir="s"/>
    <connection from="918_11" to="11_10" fromLane="0" toLane="0" dir="l"/>
    <connection from="313_11" to="11_10" fromLane="0" toLane="0" dir="r"/>
    <connection from="313_11" to="11_918" fromLane="0" toLane="0" dir="s"/>
    <connection from="313_11" to="11_12" fromLane="0" toLane="0" dir="l"/>
    <connection from="10_11" to="11_918" fromLane="0" toLane="0" dir="r"/>
    <connection from="10_11" to="11_12" fromLane="0" toLane="0" dir="s"/>
    <connection from="10_11" to="11_313" fromLane="0" toLane="0" dir="l"/>
    <connection from="12_11" to="11_313" fromLane="0" toLane="0" dir="r"/>
    <connection from="12_11" to="11_10" fromLane="0" toLane="0" dir="s"/>
    <connection from="12_11" to="11_918" fromLane="0" toLane="0" dir="l"/>
    <connection from="915_12" to="12_937" fromLane="0" toLane="0" dir="r"/>
    <connection from="915_12" to="12_108" fromLane="0" toLane="0" dir="s"/>
    <connection from="915_12" to="12_11" fromLane="0" toLane="0" dir="l"/>
    <connection from="108_12" to="12_11" fromLane="0" toLane="0" dir="r"/>
    <connection from="108_12" to="12_915" fromLane="0" toLane="0" dir="s"/>
    <connection from="108_12" to="12_937" fromLane="0" toLane="1" dir="l"/>
    <connection from="11_12" to="12_915" fromLane="0" toLane="0" dir="r"/>
    <connection from="11_12" to="12_937" fromLane="0" toLane="0" dir="s"/>
    <connection from="11_12" to="12_108" fromLane="0" toLane="0" dir="l"/>
    <connection from="937_12" to="12_108" fromLane="0" toLane="0" dir="r"/>
    <connection from="937_12" to="12_11" fromLane="0" toLane="0" dir="s"/>
    <connection from="937_12" to="12_915" fromLane="0" toLane="0" dir="l"/>
    <connection from="909_13" to="13_273" fromLane="0" toLane="0" dir="r"/>
    <connection from="909_13" to="13_937" fromLane="0" toLane="1" dir="l"/>
    <connection from="937_13" to="13_909" fromLane="0" toLane="0" dir="r"/>
    <connection from="937_13" to="13_273" fromLane="0" toLane="0" dir="s"/>
    <connection from="273_13" to="13_937" fromLane="0" toLane="0" dir="s"/>
    <connection from="273_13" to="13_909" fromLane="0" toLane="0" dir="l"/>
    <connection from="92_42" to="42_96" fromLane="0" toLane="0" dir="s"/>
    <connection from="92_42" to="42_96" fromLane="1" toLane="1" dir="s"/>
    <connection from="92_42" to="42_91" fromLane="1" toLane="0" dir="l"/>
    <connection from="96_42" to="42_91" fromLane="0" toLane="0" dir="r"/>
    <connection from="91_42" to="42_92" fromLane="0" toLane="0" dir="r"/>
    <connection from="91_42" to="42_96" fromLane="0" toLane="0" dir="l"/>
    <connection from="91_42" to="42_96" fromLane="1" toLane="1" dir="l"/>
    <connection from="53_54" to="54_4920" fromLane="0" toLane="0" dir="r"/>
    <connection from="4921_54" to="54_53" fromLane="0" toLane="0" dir="s"/>
    <connection from="4921_54" to="54_4920" fromLane="0" toLane="0" dir="l"/>
    <connection from="4920_54" to="54_4921" fromLane="0" toLane="0" dir="r"/>
    <connection from="4920_54" to="54_53" fromLane="0" toLane="0" dir="l"/>
    <connection from="4920_54" to="54_53" fromLane="1" toLane="1" dir="l"/>
    <connection from="52_55" to="55_4919" fromLane="0" toLane="0" dir="s"/>
    <connection from="52_55" to="55_4920" fromLane="1" toLane="0" dir="l"/>
    <connection from="52_55" to="55_4920" fromLane="2" toLane="1" dir="l"/>
    <connection from="4919_55" to="55_4920" fromLane="0" toLane="0" dir="r"/>
    <connection from="4920_55" to="55_52" fromLane="0" toLane="0" dir="r"/>
    <connection from="4920_55" to="55_4919" fromLane="0" toLane="0" dir="l"/>
    <connection from="4921_59" to="59_4920" fromLane="0" toLane="0" dir="r"/>
    <connection from="62_59" to="59_4921" fromLane="0" toLane="0" dir="s"/>
    <connection from="62_59" to="59_4920" fromLane="1" toLane="0" dir="l"/>
    <connection from="62_59" to="59_4920" fromLane="2" toLane="1" dir="l"/>
    <connection from="4920_59" to="59_62" fromLane="0" toLane="0" dir="r"/>
    <connection from="4920_59" to="59_4921" fromLane="0" toLane="0" dir="l"/>
    <connection from="4919_60" to="60_63" fromLane="0" toLane="0" dir="s"/>
    <connection from="4919_60" to="60_4920" fromLane="0" toLane="0" dir="l"/>
    <connection from="63_60" to="60_4920" fromLane="0" toLane="0" dir="r"/>
    <connection from="4920_60" to="60_4919" fromLane="0" toLane="0" dir="r"/>
    <connection from="4920_60" to="60_63" fromLane="0" toLane="0" dir="l"/>
    <connection from="4920_60" to="60_63" fromLane="1" toLane="1" dir="l"/>
    <connection from="61_63" to="63_60" fromLane="0" toLane="0" dir="r"/>
    <connection from="61_63" to="63_64" fromLane="0" toLane="0" dir="s"/>
    <connection from="61_63" to="63_64" fromLane="1" toLane="1" dir="s"/>
    <connection from="61_63" to="63_64" fromLane="2" toLane="2" dir="s"/>
    <connection from="64_63" to="63_60" fromLane="0" toLane="0" dir="l"/>
    <connection from="60_63" to="63_64" fromLane="0" toLane="0" dir="r"/>
    <connection from="60_63" to="63_64" fromLane="1" toLane="1" dir="r"/>
    <connection from="60_63" to="63_61" fromLane="1" toLane="0" dir="l"/>
    <connection from="69_71" to="71_5120" fromLane="0" toLane="0" dir="r"/>
    <connection from="5121_71" to="71_69" fromLane="0" toLane="0" dir="s"/>
    <connection from="5121_71" to="71_5120" fromLane="0" toLane="0" dir="l"/>
    <connection from="5120_71" to="71_5121" fromLane="0" toLane="0" dir="r"/>
    <connection from="5120_71" to="71_69" fromLane="0" toLane="0" dir="l"/>
    <connection from="5120_71" to="71_69" fromLane="1" toLane="1" dir="l"/>
    <connection from="70_72" to="72_5119" fromLane="0" toLane="0" dir="s"/>
    <connection from="70_72" to="72_5119" fromLane="1" toLane="1" dir="s"/>
    <connection from="70_72" to="72_5120" fromLane="2" toLane="1" dir="l"/>
    <connection from="5119_72" to="72_5120" fromLane="0" toLane="0" dir="r"/>
    <connection from="5120_72" to="72_70" fromLane="0" toLane="0" dir="r"/>
    <connection from="5120_72" to="72_5119" fromLane="0" toLane="1" dir="l"/>
    <connection from="5121_76" to="76_5120" fromLane="0" toLane="0" dir="r"/>
    <connection from="79_76" to="76_5121" fromLane="0" toLane="0" dir="s"/>
    <connection from="79_76" to="76_5121" fromLane="1" toLane="0" dir="s"/>
    <connection from="79_76" to="76_5120" fromLane="2" toLane="1" dir="l"/>
    <connection from="5120_76" to="76_79" fromLane="0" toLane="0" dir="r"/>
    <connection from="5120_76" to="76_5121" fromLane="0" toLane="0" dir="l"/>
    <connection from="5119_77" to="77_80" fromLane="0" toLane="0" dir="s"/>
    <connection from="5119_77" to="77_5120" fromLane="0" toLane="0" dir="l"/>
    <connection from="80_77" to="77_5120" fromLane="0" toLane="0" dir="r"/>
    <connection from="5120_77" to="77_5119" fromLane="0" toLane="0" dir="r"/>
    <connection from="5120_77" to="77_80" fromLane="0" toLane="0" dir="l"/>
    <connection from="5120_77" to="77_80" fromLane="1" toLane="1" dir="l"/>
    <connection from="78_80" to="80_77" fromLane="0" toLane="0" dir="r"/>
    <connection from="78_80" to="80_81" fromLane="0" toLane="0" dir="s"/>
    <connection from="78_80" to="80_81" fromLane="1" toLane="1" dir="s"/>
    <connection from="78_80" to="80_81" fromLane="2" toLane="2" dir="s"/>
    <connection from="81_80" to="80_77" fromLane="0" toLane="0" dir="l"/>
    <connection from="77_80" to="80_81" fromLane="0" toLane="0" dir="r"/>
    <connection from="77_80" to="80_81" fromLane="1" toLane="1" dir="r"/>
    <connection from="77_80" to="80_78" fromLane="1" toLane="0" dir="l"/>
    <connection from="86_88" to="88_91" fromLane="0" toLane="0" dir="r"/>
    <connection from="90_88" to="88_86" fromLane="0" toLane="0" dir="s"/>
    <connection from="90_88" to="88_86" fromLane="1" toLane="1" dir="s"/>
    <connection from="90_88" to="88_91" fromLane="1" toLane="0" dir="l"/>
    <connection from="91_88" to="88_90" fromLane="0" toLane="0" dir="r"/>
    <connection from="91_88" to="88_86" fromLane="0" toLane="0" dir="l"/>
    <connection from="91_88" to="88_86" fromLane="1" toLane="1" dir="l"/>
    <connection from="87_89" to="89_92" fromLane="0" toLane="0" dir="s"/>
    <connection from="87_89" to="89_92" fromLane="1" toLane="1" dir="s"/>
    <connection from="87_89" to="89_91" fromLane="2" toLane="1" dir="l"/>
    <connection from="92_89" to="89_91" fromLane="0" toLane="0" dir="r"/>
    <connection from="91_89" to="89_87" fromLane="0" toLane="0" dir="r"/>
    <connection from="91_89" to="89_92" fromLane="0" toLane="1" dir="l"/>
    <connection from="88_90" to="90_91" fromLane="0" toLane="0" dir="r"/>
    <connection from="88_90" to="90_308" fromLane="0" toLane="2" dir="l"/>
    <connection from="93_90" to="90_308" fromLane="0" toLane="0" dir="r"/>
    <connection from="93_90" to="90_308" fromLane="1" toLane="1" dir="r"/>
    <connection from="93_90" to="90_91" fromLane="1" toLane="4" dir="l"/>
    <connection from="308_90" to="90_88" fromLane="0" toLane="0" dir="r"/>
    <connection from="308_90" to="90_91" fromLane="1" toLane="0" dir="s"/>
    <connection from="308_90" to="90_91" fromLane="2" toLane="1" dir="s"/>
    <connection from="308_90" to="90_91" fromLane="3" toLane="2" dir="s"/>
    <connection from="308_90" to="90_91" fromLane="4" toLane="3" dir="s"/>
    <connection from="308_90" to="90_91" fromLane="5" toLane="4" dir="s"/>
    <connection from="308_90" to="90_93" fromLane="5" toLane="0" dir="l"/>
    <connection from="91_90" to="90_93" fromLane="0" toLane="0" dir="r"/>
    <connection from="91_90" to="90_308" fromLane="0" toLane="0" dir="s"/>
    <connection from="91_90" to="90_308" fromLane="1" toLane="1" dir="s"/>
    <connection from="91_90" to="90_308" fromLane="2" toLane="2" dir="s"/>
    <connection from="91_90" to="90_88" fromLane="2" toLane="1" dir="l"/>
    <connection from="90_91" to="91_89" fromLane="0" toLane="0" dir="r"/>
    <connection from="90_91" to="91_88" fromLane="0" toLane="0" dir="r"/>
    <connection from="90_91" to="91_92" fromLane="0" toLane="0" dir="s"/>
    <connection from="90_91" to="91_92" fromLane="1" toLane="1" dir="s"/>
    <connection from="90_91" to="91_92" fromLane="2" toLane="2" dir="s"/>
    <connection from="90_91" to="91_93" fromLane="3" toLane="0" dir="l"/>
    <connection from="90_91" to="91_42" fromLane="3" toLane="0" dir="l"/>
    <connection from="90_91" to="91_42" fromLane="4" toLane="1" dir="l"/>
    <connection from="92_91" to="91_93" fromLane="0" toLane="0" dir="r"/>
    <connection from="92_91" to="91_42" fromLane="0" toLane="0" dir="r"/>
    <connection from="92_91" to="91_90" fromLane="0" toLane="0" dir="s"/>
    <connection from="92_91" to="91_90" fromLane="1" toLane="1" dir="s"/>
    <connection from="92_91" to="91_90" fromLane="2" toLane="2" dir="s"/>
    <connection from="92_91" to="91_89" fromLane="3" toLane="0" dir="l"/>
    <connection from="92_91" to="91_88" fromLane="3" toLane="0" dir="l"/>
    <connection from="92_91" to="91_88" fromLane="4" toLane="1" dir="l"/>
    <connection from="88_91" to="91_92" fromLane="0" toLane="0" dir="r"/>
    <connection from="88_91" to="91_89" fromLane="0" toLane="0" dir="r"/>
    <connection from="88_91" to="91_90" fromLane="0" toLane="2" dir="l"/>
    <connection from="88_91" to="91_93" fromLane="0" toLane="0" dir="l"/>
    <connection from="89_91" to="91_42" fromLane="0" toLane="0" dir="r"/>
    <connection from="89_91" to="91_92" fromLane="0" toLane="0" dir="r"/>
    <connection from="89_91" to="91_88" fromLane="0" toLane="1" dir="l"/>
    <connection from="89_91" to="91_90" fromLane="0" toLane="1" dir="l"/>
    <connection from="89_91" to="91_90" fromLane="1" toLane="2" dir="l"/>
    <connection from="93_91" to="91_88" fromLane="0" toLane="0" dir="r"/>
    <connection from="93_91" to="91_90" fromLane="0" toLane="0" dir="r"/>
    <connection from="93_91" to="91_42" fromLane="0" toLane="1" dir="l"/>
    <connection from="93_91" to="91_92" fromLane="0" toLane="1" dir="l"/>
    <connection from="93_91" to="91_92" fromLane="1" toLane="2" dir="l"/>
    <connection from="42_91" to="91_90" fromLane="0" toLane="0" dir="r"/>
    <connection from="42_91" to="91_93" fromLane="0" toLane="0" dir="r"/>
    <connection from="42_91" to="91_92" fromLane="0" toLane="2" dir="l"/>
    <connection from="42_91" to="91_89" fromLane="0" toLane="0" dir="l"/>
    <connection from="89_92" to="92_4324" fromLane="0" toLane="0" dir="r"/>
    <connection from="89_92" to="92_4324" fromLane="1" toLane="1" dir="r"/>
    <connection from="89_92" to="92_91" fromLane="1" toLane="4" dir="l"/>
    <connection from="42_92" to="92_91" fromLane="0" toLane="0" dir="r"/>
    <connection from="42_92" to="92_4324" fromLane="0" toLane="5" dir="l"/>
    <connection from="91_92" to="92_89" fromLane="0" toLane="0" dir="r"/>
    <connection from="91_92" to="92_4324" fromLane="0" toLane="0" dir="s"/>
    <connection from="91_92" to="92_4324" fromLane="1" toLane="1" dir="s"/>
    <connection from="91_92" to="92_4324" fromLane="2" toLane="2" dir="s"/>
    <connection from="91_92" to="92_42" fromLane="2" toLane="1" dir="l"/>
    <connection from="4324_92" to="92_42" fromLane="0" toLane="0" dir="r"/>
    <connection from="4324_92" to="92_91" fromLane="1" toLane="0" dir="s"/>
    <connection from="4324_92" to="92_91" fromLane="2" toLane="1" dir="s"/>
    <connection from="4324_92" to="92_91" fromLane="3" toLane="2" dir="s"/>
    <connection from="4324_92" to="92_91" fromLane="4" toLane="3" dir="s"/>
    <connection from="4324_92" to="92_91" fromLane="5" toLane="4" dir="s"/>
    <connection from="4324_92" to="92_89" fromLane="5" toLane="0" dir="l"/>
    <connection from="90_93" to="93_91" fromLane="0" toLane="0" dir="r"/>
    <connection from="95_93" to="93_90" fromLane="0" toLane="0" dir="s"/>
    <connection from="95_93" to="93_90" fromLane="1" toLane="1" dir="s"/>
    <connection from="95_93" to="93_91" fromLane="2" toLane="1" dir="l"/>
    <connection from="91_93" to="93_95" fromLane="0" toLane="0" dir="r"/>
    <connection from="91_93" to="93_90" fromLane="0" toLane="1" dir="l"/>
    <connection from="94_96" to="96_42" fromLane="0" toLane="0" dir="r"/>
    <connection from="94_96" to="96_97" fromLane="0" toLane="0" dir="s"/>
    <connection from="94_96" to="96_97" fromLane="1" toLane="1" dir="s"/>
    <connection from="94_96" to="96_97" fromLane="2" toLane="2" dir="s"/>
    <connection from="97_96" to="96_42" fromLane="0" toLane="0" dir="l"/>
    <connection from="42_96" to="96_97" fromLane="0" toLane="0" dir="r"/>
    <connection from="42_96" to="96_97" fromLane="1" toLane="1" dir="r"/>
    <connection from="42_96" to="96_94" fromLane="1" toLane="0" dir="l"/>
    <connection from="250_101" to="101_239" fromLane="0" toLane="0" dir="r"/>
    <connection from="250_101" to="101_363" fromLane="0" toLane="0" dir="s"/>
    <connection from="250_101" to="101_363" fromLane="1" toLane="1" dir="s"/>
    <connection from="250_101" to="101_240" fromLane="2" toLane="1" dir="l"/>
    <connection from="363_101" to="101_240" fromLane="0" toLane="0" dir="r"/>
    <connection from="363_101" to="101_250" fromLane="1" toLane="0" dir="s"/>
    <connection from="363_101" to="101_250" fromLane="2" toLane="1" dir="s"/>
    <connection from="363_101" to="101_250" fromLane="3" toLane="2" dir="s"/>
    <connection from="363_101" to="101_250" fromLane="4" toLane="3" dir="s"/>
    <connection from="363_101" to="101_239" fromLane="4" toLane="0" dir="l"/>
    <connection from="240_101" to="101_250" fromLane="0" toLane="0" dir="r"/>
    <connection from="240_101" to="101_363" fromLane="0" toLane="3" dir="l"/>
    <connection from="239_101" to="101_363" fromLane="0" toLane="0" dir="r"/>
    <connection from="239_101" to="101_240" fromLane="1" toLane="0" dir="s"/>
    <connection from="239_101" to="101_240" fromLane="2" toLane="1" dir="s"/>
    <connection from="239_101" to="101_250" fromLane="3" toLane="3" dir="l"/>
    <connection from="3775_102" to="102_251" fromLane="0" toLane="0" dir="r"/>
    <connection from="3775_102" to="102_103" fromLane="1" toLane="0" dir="s"/>
    <connection from="3775_102" to="102_103" fromLane="2" toLane="1" dir="s"/>
    <connection from="3775_102" to="102_103" fromLane="3" toLane="2" dir="s"/>
    <connection from="3775_102" to="102_211" fromLane="3" toLane="0" dir="l"/>
    <connection from="103_102" to="102_211" fromLane="0" toLane="0" dir="r"/>
    <connection from="103_102" to="102_3775" fromLane="0" toLane="0" dir="s"/>
    <connection from="103_102" to="102_3775" fromLane="1" toLane="1" dir="s"/>
    <connection from="103_102" to="102_251" fromLane="2" toLane="0" dir="l"/>
    <connection from="103_102" to="102_251" fromLane="3" toLane="1" dir="l"/>
    <connection from="211_102" to="102_3775" fromLane="0" toLane="0" dir="r"/>
    <connection from="211_102" to="102_251" fromLane="1" toLane="0" dir="s"/>
    <connection from="211_102" to="102_251" fromLane="2" toLane="1" dir="s"/>
    <connection from="211_102" to="102_103" fromLane="3" toLane="2" dir="l"/>
    <connection from="251_102" to="102_103" fromLane="0" toLane="0" dir="r"/>
    <connection from="251_102" to="102_3775" fromLane="0" toLane="3" dir="l"/>
    <connection from="102_103" to="103_216" fromLane="0" toLane="0" dir="r"/>
    <connection from="102_103" to="103_277" fromLane="0" toLane="0" dir="s"/>
    <connection from="102_103" to="103_277" fromLane="1" toLane="1" dir="s"/>
    <connection from="102_103" to="103_215" fromLane="2" toLane="2" dir="l"/>
    <connection from="277_103" to="103_215" fromLane="0" toLane="0" dir="r"/>
    <connection from="277_103" to="103_102" fromLane="1" toLane="0" dir="s"/>
    <connection from="277_103" to="103_102" fromLane="2" toLane="1" dir="s"/>
    <connection from="277_103" to="103_102" fromLane="3" toLane="2" dir="s"/>
    <connection from="277_103" to="103_102" fromLane="4" toLane="3" dir="s"/>
    <connection from="277_103" to="103_216" fromLane="4" toLane="0" dir="l"/>
    <connection from="215_103" to="103_102" fromLane="0" toLane="0" dir="r"/>
    <connection from="215_103" to="103_277" fromLane="0" toLane="1" dir="l"/>
    <connection from="216_103" to="103_277" fromLane="0" toLane="0" dir="r"/>
    <connection from="216_103" to="103_215" fromLane="1" toLane="0" dir="s"/>
    <connection from="216_103" to="103_215" fromLane="2" toLane="1" dir="s"/>
    <connection from="216_103" to="103_102" fromLane="3" toLane="3" dir="l"/>
    <connection from="267_212" to="212_129" fromLane="0" toLane="0" dir="r"/>
    <connection from="267_212" to="212_57" fromLane="1" toLane="0" dir="s"/>
    <connection from="267_212" to="212_1" fromLane="2" toLane="3" dir="l"/>
    <connection from="57_212" to="212_1" fromLane="0" toLane="0" dir="r"/>
    <connection from="57_212" to="212_267" fromLane="1" toLane="0" dir="s"/>
    <connection from="57_212" to="212_129" fromLane="2" toLane="1" dir="l"/>
    <connection from="1_212" to="212_267" fromLane="0" toLane="0" dir="r"/>
    <connection from="1_212" to="212_129" fromLane="0" toLane="0" dir="s"/>
    <connection from="1_212" to="212_129" fromLane="1" toLane="1" dir="s"/>
    <connection from="1_212" to="212_57" fromLane="2" toLane="0" dir="l"/>
    <connection from="129_212" to="212_57" fromLane="0" toLane="0" dir="r"/>
    <connection from="129_212" to="212_1" fromLane="0" toLane="0" dir="s"/>
    <connection from="129_212" to="212_1" fromLane="1" toLane="1" dir="s"/>
    <connection from="129_212" to="212_1" fromLane="2" toLane="2" dir="s"/>
    <connection from="129_212" to="212_267" fromLane="3" toLane="0" dir="l"/>
    <connection from="899_220" to="220_357" fromLane="0" toLane="0" dir="r"/>
    <connection from="899_220" to="220_919" fromLane="1" toLane="0" dir="s"/>
    <connection from="899_220" to="220_200" fromLane="1" toLane="0" dir="l"/>
    <connection from="919_220" to="220_200" fromLane="0" toLane="0" dir="r"/>
    <connection from="919_220" to="220_899" fromLane="0" toLane="0" dir="s"/>
    <connection from="919_220" to="220_357" fromLane="0" toLane="0" dir="l"/>
    <connection from="200_220" to="220_899" fromLane="0" toLane="0" dir="r"/>
    <connection from="200_220" to="220_357" fromLane="0" toLane="0" dir="s"/>
    <connection from="200_220" to="220_919" fromLane="0" toLane="0" dir="l"/>
    <connection from="357_220" to="220_919" fromLane="0" toLane="0" dir="r"/>
    <connection from="357_220" to="220_200" fromLane="0" toLane="0" dir="s"/>
    <connection from="357_220" to="220_899" fromLane="0" toLane="2" dir="l"/>
    <connection from="4450_250" to="250_243" fromLane="0" toLane="0" dir="r"/>
    <connection from="4450_250" to="250_101" fromLane="1" toLane="0" dir="s"/>
    <connection from="4450_250" to="250_101" fromLane="2" toLane="1" dir="s"/>
    <connection from="4450_250" to="250_101" fromLane="3" toLane="2" dir="s"/>
    <connection from="4450_250" to="250_242" fromLane="3" toLane="0" dir="l"/>
    <connection from="101_250" to="250_242" fromLane="0" toLane="0" dir="r"/>
    <connection from="101_250" to="250_4450" fromLane="0" toLane="0" dir="s"/>
    <connection from="101_250" to="250_4450" fromLane="1" toLane="1" dir="s"/>
    <connection from="101_250" to="250_243" fromLane="2" toLane="0" dir="l"/>
    <connection from="101_250" to="250_243" fromLane="3" toLane="1" dir="l"/>
    <connection from="242_250" to="250_4450" fromLane="0" toLane="0" dir="r"/>
    <connection from="242_250" to="250_243" fromLane="0" toLane="0" dir="s"/>
    <connection from="242_250" to="250_243" fromLane="1" toLane="1" dir="s"/>
    <connection from="242_250" to="250_101" fromLane="2" toLane="2" dir="l"/>
    <connection from="243_250" to="250_101" fromLane="0" toLane="0" dir="r"/>
    <connection from="243_250" to="250_4450" fromLane="0" toLane="2" dir="l"/>
    <connection from="3425_254" to="254_152" fromLane="0" toLane="0" dir="r"/>
    <connection from="3425_254" to="254_344" fromLane="1" toLane="4" dir="l"/>
    <connection from="3425_254" to="254_344" fromLane="2" toLane="5" dir="l"/>
    <connection from="344_254" to="254_3425" fromLane="0" toLane="0" dir="r"/>
    <connection from="344_254" to="254_152" fromLane="0" toLane="0" dir="s"/>
    <connection from="344_254" to="254_152" fromLane="1" toLane="1" dir="s"/>
    <connection from="344_254" to="254_152" fromLane="2" toLane="2" dir="s"/>
    <connection from="152_254" to="254_344" fromLane="0" toLane="0" dir="s"/>
    <connection from="152_254" to="254_344" fromLane="1" toLane="1" dir="s"/>
    <connection from="152_254" to="254_344" fromLane="2" toLane="2" dir="s"/>
    <connection from="152_254" to="254_3425" fromLane="3" toLane="1" dir="l"/>
    <connection from="190_287" to="287_9" fromLane="0" toLane="0" dir="r"/>
    <connection from="190_287" to="287_2124" fromLane="0" toLane="2" dir="l"/>
    <connection from="2124_287" to="287_190" fromLane="0" toLane="0" dir="r"/>
    <connection from="2124_287" to="287_9" fromLane="1" toLane="0" dir="s"/>
    <connection from="9_287" to="287_2124" fromLane="0" toLane="0" dir="s"/>
    <connection from="9_287" to="287_190" fromLane="0" toLane="0" dir="l"/>
    <connection from="345_344" to="344_2212" fromLane="0" toLane="0" dir="r"/>
    <connection from="345_344" to="344_336" fromLane="0" toLane="0" dir="r"/>
    <connection from="345_344" to="344_331" fromLane="0" toLane="1" dir="l"/>
    <connection from="345_344" to="344_254" fromLane="0" toLane="2" dir="l"/>
    <connection from="346_344" to="344_331" fromLane="0" toLane="0" dir="r"/>
    <connection from="346_344" to="344_254" fromLane="0" toLane="0" dir="r"/>
    <connection from="346_344" to="344_2212" fromLane="0" toLane="2" dir="l"/>
    <connection from="346_344" to="344_336" fromLane="0" toLane="2" dir="l"/>
    <connection from="331_344" to="344_336" fromLane="0" toLane="0" dir="r"/>
    <connection from="331_344" to="344_345" fromLane="0" toLane="0" dir="r"/>
    <connection from="331_344" to="344_2212" fromLane="1" toLane="0" dir="s"/>
    <connection from="331_344" to="344_2212" fromLane="2" toLane="1" dir="s"/>
    <connection from="331_344" to="344_254" fromLane="3" toLane="2" dir="l"/>
    <connection from="331_344" to="344_346" fromLane="3" toLane="0" dir="l"/>
    <connection from="2212_344" to="344_254" fromLane="0" toLane="0" dir="r"/>
    <connection from="2212_344" to="344_346" fromLane="0" toLane="0" dir="r"/>
    <connection from="2212_344" to="344_331" fromLane="0" toLane="0" dir="s"/>
    <connection from="2212_344" to="344_331" fromLane="1" toLane="1" dir="s"/>
    <connection from="2212_344" to="344_336" fromLane="2" toLane="2" dir="l"/>
    <connection from="2212_344" to="344_345" fromLane="2" toLane="1" dir="l"/>
    <connection from="336_344" to="344_346" fromLane="0" toLane="0" dir="r"/>
    <connection from="336_344" to="344_2212" fromLane="0" toLane="0" dir="r"/>
    <connection from="336_344" to="344_254" fromLane="1" toLane="0" dir="s"/>
    <connection from="336_344" to="344_254" fromLane="2" toLane="1" dir="s"/>
    <connection from="336_344" to="344_254" fromLane="3" toLane="2" dir="s"/>
    <connection from="336_344" to="344_345" fromLane="4" toLane="1" dir="l"/>
    <connection from="336_344" to="344_331" fromLane="4" toLane="1" dir="l"/>
    <connection from="254_344" to="344_345" fromLane="0" toLane="0" dir="r"/>
    <connection from="254_344" to="344_331" fromLane="0" toLane="0" dir="r"/>
    <connection from="254_344" to="344_336" fromLane="1" toLane="0" dir="s"/>
    <connection from="254_344" to="344_336" fromLane="2" toLane="1" dir="s"/>
    <connection from="254_344" to="344_336" fromLane="3" toLane="2" dir="s"/>
    <connection from="254_344" to="344_346" fromLane="4" toLane="0" dir="l"/>
    <connection from="254_344" to="344_2212" fromLane="4" toLane="1" dir="l"/>
    <connection from="254_344" to="344_2212" fromLane="5" toLane="2" dir="l"/>
    <connection from="101_363" to="363_4550" fromLane="0" toLane="0" dir="s"/>
    <connection from="101_363" to="363_4550" fromLane="1" toLane="1" dir="s"/>
    <connection from="101_363" to="363_382" fromLane="2" toLane="0" dir="l"/>
    <connection from="101_363" to="363_382" fromLane="3" toLane="1" dir="l"/>