<?xml version="1.0" ?>
<edges>
    <edge id="356_1" from="356" to="1" numLanes="1" speed="13.4112">
        <lane index="0" length="54.254400000000004" speed="13.4112"/>
    </edge>
    <edge id="812_1" from="812" to="1" numLanes="4" speed="17.8816">
        <lane index="0" length="91.44" speed="17.8816"/>
        <lane index="1" length="877.8240000000001" speed="17.8816"/>
        <lane index="2" length="877.8240000000001" speed="17.8816"/>
        <lane index="3" length="91.44" speed="17.8816"/>
    </edge>
    <edge id="212_1" from="212" to="1" numLanes="4" speed="17.8816">
        <lane index="0" length="739.4448" speed="17.8816"/>
        <lane index="1" length="739.4448" speed="17.8816"/>
        <lane index="2" length="739.4448" speed="17.8816"/>
        <lane index="3" length="30.48" speed="17.8816"/>
    </edge>
    <edge id="364_1" from="364" to="1" numLanes="4" speed="13.4112">
        <lane index="0" length="103.3272" speed="13.4112"/>
        <lane index="1" length="103.3272" speed="13.4112"/>
        <lane index="2" length="103.3272" speed="13.4112"/>
        <lane index="3" length="30.48" speed="13.4112"/>
    </edge>
    <edge id="369_1" from="369" to="1" numLanes="4" speed="13.4112">
        <lane index="0" length="67.9704" speed="13.4112"/>
        <lane index="1" length="67.9704" speed="13.4112"/>
        <lane index="2" length="67.9704" speed="13.4112"/>
        <lane index="3" length="67.9704" speed="13.4112"/>
    </edge>
    <edge id="812_2" from="812" to="2" numLanes="1" speed="15.6464"/>
    <edge id="750_2" from="750" to="2" numLanes="2" speed="15.6464"/>
    <edge id="912_3" from="912" to="3" numLanes="1" speed="13.4112"/>
    <edge id="5074_4" from="5074" to="4" speed="13.4112"/>
    <edge id="812_5" from="812" to="5" numLanes="1" speed="13.4112"/>
    <edge id="2109_6" from="2109" to="6" numLanes="2" speed="17.8816"/>
    <edge id="3050_7" from="3050" to="7" numLanes="2" speed="17.8816"/>
    <edge id="750_8" from="750" to="8" numLanes="2" speed="17.8816"/>
    <edge id="921_9" from="921" to="9" numLanes="1" speed="11.176">
        <lane index="0" length="133.8072" speed="11.176"/>
    </edge>
    <edge id="217_9" from="217" to="9" numLanes="1" speed="11.176">
        <lane index="0" length="121.6152" speed="11.176"/>
    </edge>
    <edge id="287_9" from="287" to="9" numLanes="1" speed="11.176">
        <lane index="0" length="169.46880000000002" speed="11.176"/>
    </edge>
    <edge id="10_9" from="10" to="9" numLanes="1" speed="11.176">
        <lane index="0" length="113.08080000000001" speed="11.176"/>
    </edge>
    <edge id="919_10" from="919" to="10" numLanes="1" speed="11.176">
        <lane index="0" length="133.5024" speed="11.176"/>
    </edge>
    <edge id="301_10" from="301" to="10" numLanes="1" speed="11.176">
        <lane index="0" length="121.6152" speed="11.176"/>
    </edge>
    <edge id="9_10" from="9" to="10" numLanes="1" speed="11.176">
        <lane index="0" length="113.08080000000001" speed="11.176"/>
    </edge>
    <edge id="11_10" from="11" to="10" numLanes="1" speed="11.176">
        <lane index="0" length="118.872" speed="11.176"/>
    </edge>
    <edge id="918_11" from="918" to="11" numLanes="1" speed="11.176">
        <lane index="0" length="133.5024" speed="11.176"/>
    </edge>
    <edge id="313_11" from="313" to="11" numLanes="1" speed="11.176">
        <lane index="0" length="126.1872" speed="11.176"/>
    </edge>
    <edge id="10_11" from="10" to="11" numLanes="1" speed="11.176">
        <lane index="0" length="118.872" speed="11.176"/>
    </edge>
    <edge id="12_11" from="12" to="11" numLanes="1" speed="11.176">
        <lane index="0" length="113.99520000000001" speed="11.176"/>
    </edge>
    <edge id="915_12" from="915" to="12" numLanes="1" speed="13.4112">
        <lane index="0" length="133.1976" speed="13.4112"/>
    </edge>
    <edge id="108_12" from="108" to="12" numLanes="1" speed="13.4112">
        <lane index="0" length="136.8552" speed="13.4112"/>
    </edge>
    <edge id="11_12" from="11" to="12" numLanes="1" speed="17.8816">
        <lane index="0" length="113.99520000000001" speed="17.8816"/>
    </edge>
    <edge id="937_12" from="937" to="12" numLanes="1" speed="17.8816">
        <lane index="0" length="238.0488" speed="17.8816"/>
    </edge>
    <edge id="909_13" from="909" to="13" numLanes="1" speed="11.176">
        <lane index="0" length="135.3312" speed="11.176"/>
    </edge>
    <edge id="937_13" from="937" to="13" numLanes="1" speed="11.176">
        <lane index="0" length="227.99040000000002" speed="11.176"/>
    </edge>
    <edge id="273_13" from="273" to="13" numLanes="1" speed="11.176">
        <lane index="0" length="118.872" speed="11.176"/>
    </edge>
    <edge id="937_14" from="937" to="14" numLanes="2" speed="11.176"/>
    <edge id="2125_14" from="2125" to="14" numLanes="1" speed="11.176"/>
    <edge id="858_15" from="858" to="15" numLanes="1" speed="11.176"/>
    <edge id="2206_16" from="2206" to="16" numLanes="1" speed="17.8816"/>
    <edge id="2212_17" from="2212" to="17" numLanes="1" speed="11.176"/>
    <edge id="3350_17" from="3350" to="17" numLanes="1" speed="17.8816"/>
    <edge id="825_18" from="825" to="18" numLanes="3" speed="17.8816"/>
    <edge id="909_19" from="909" to="19" numLanes="2" speed="17.8816"/>
    <edge id="5073_26" from="5073" to="26" numLanes="2" speed="11.176"/>
    <edge id="4306_29" from="4306" to="29" numLanes="2" speed="13.4112"/>
    <edge id="4324_32" from="4324" to="32" numLanes="3" speed="13.4112"/>
    <edge id="4300_38" from="4300" to="38" numLanes="3" speed="17.8816"/>
    <edge id="2125_40" from="2125" to="40" numLanes="3" speed="17.8816"/>
    <edge id="92_42" from="92" to="42" numLanes="2" speed="20.1168">
        <lane index="0" length="53.949600000000004" speed="20.1168"/>
        <lane index="1" length="53.949600000000004" speed="20.1168"/>
    </edge>
    <edge id="96_42" from="96" to="42" speed="22.352"/>
    <edge id="91_42" from="91" to="42" numLanes="2" speed="22.352">
        <lane index="0" length="68.58" speed="22.352"/>
        <lane index="1" length="68.58" speed="22.352"/>
    </edge>
    <edge id="4312_43" from="4312" to="43" numLanes="2" speed="11.176"/>
    <edge id="4306_46" from="4306" to="46" numLanes="2" speed="11.176"/>
    <edge id="53_50" from="53" to="50" numLanes="2" speed="11.176"/>
    <edge id="52_51" from="52" to="51" speed="11.176"/>
    <edge id="51_52" from="51" to="52" numLanes="1" speed="20.1168"/>
    <edge id="55_52" from="55" to="52" speed="20.1168"/>
    <edge id="50_53" from="50" to="53" speed="20.1168"/>
    <edge id="54_53" from="54" to="53" numLanes="2" speed="20.1168"/>
    <edge id="53_54" from="53" to="54" speed="20.1168"/>
    <edge id="4921_54" from="4921" to="54" numLanes="1" speed="20.1168">
        <lane index="0" length="53.644800000000004" speed="20.1168"/>
    </edge>
    <edge id="4920_54" from="4920" to="54" numLanes="2" speed="17.8816">
        <lane index="0" length="71.9328" speed="17.8816"/>
        <lane index="1" length="71.9328" speed="17.8816"/>
    </edge>
    <edge id="52_55" from="52" to="55" numLanes="3" speed="20.1168">
        <lane index="0" length="81.0768" speed="20.1168"/>
        <lane index="1" length="60.96" speed="20.1168"/>
        <lane index="2" length="60.96" speed="20.1168"/>
    </edge>
    <edge id="4919_55" from="4919" to="55" speed="20.1168"/>
    <edge id="4920_55" from="4920" to="55" speed="13.4112"/>
    <edge id="212_57" from="212" to="57" numLanes="1" speed="17.8816"/>
    <edge id="4312_58" from="4312" to="58" numLanes="2" speed="13.4112"/>
    <edge id="4362_58" from="4362" to="58" numLanes="2" speed="13.4112"/>
    <edge id="4921_59" from="4921" to="59" speed="20.1168"/>
    <edge id="62_59" from="62" to="59" numLanes="3" speed="20.1168">
        <lane index="0" length="78.9432" speed="20.1168"/>
        <lane index="1" length="60.96" speed="20.1168"/>
        <lane index="2" length="60.96" speed="20.1168"/>
    </edge>
    <edge id="4920_59" from="4920" to="59" speed="13.4112"/>
    <edge id="4919_60" from="4919" to="60" numLanes="1" speed="20.1168">
        <lane index="0" length="53.949600000000004" speed="20.1168"/>
    </edge>
    <edge id="63_60" from="63" to="60" speed="22.352"/>
    <edge id="4920_60" from="4920" to="60" numLanes="2" speed="22.352">
        <lane index="0" length="68.58" speed="22.352"/>
        <lane index="1" length="68.58" speed="22.352"/>
    </edge>
    <edge id="63_61" from="63" to="61" speed="24.5872"/>
    <edge id="59_62" from="59" to="62" speed="20.1168"/>
    <edge id="65_62" from="65" to="62" numLanes="1" speed="20.1168"/>
    <edge id="61_63" from="61" to="63" numLanes="3" speed="24.5872">
        <lane index="0" length="49.9872" speed="24.5872"/>
        <lane index="1" length="49.9872" speed="24.5872"/>
        <lane index="2" length="49.9872" speed="24.5872"/>
    </edge>
    <edge id="64_63" from="64" to="63" speed="24.5872"/>
    <edge id="60_63" from="60" to="63" numLanes="2" speed="22.352">
        <lane index="0" length="83.2104" speed="22.352"/>
        <lane index="1" length="83.2104" speed="22.352"/>
    </edge>
    <edge id="63_64" from="63" to="64" numLanes="5" speed="24.5872"/>
    <edge id="66_64" from="66" to="64" speed="24.5872"/>
    <edge id="62_65" from="62" to="65" speed="17.8816"/>
    <edge id="64_66" from="64" to="66" numLanes="3" speed="11.176"/>
    <edge id="69_67" from="69" to="67" numLanes="2" speed="11.176"/>
    <edge id="70_68" from="70" to="68" speed="17.8816"/>
    <edge id="67_69" from="67" to="69" speed="20.1168"/>
    <edge id="71_69" from="71" to="69" numLanes="2" speed="20.1168"/>
    <edge id="68_70" from="68" to="70" numLanes="2" speed="20.1168"/>
    <edge id="72_70" from="72" to="70" speed="20.1168"/>
    <edge id="69_71" from="69" to="71" speed="20.1168"/>
    <edge id="5121_71" from="5121" to="71" numLanes="1" speed="20.1168">
        <lane index="0" length="53.644800000000004" speed="20.1168"/>
    </edge>
    <edge id="5120_71" from="5120" to="71" numLanes="2" speed="17.8816">
        <lane index="0" length="71.9328" speed="17.8816"/>
        <lane index="1" length="71.9328" speed="17.8816"/>
    </edge>
    <edge id="70_72" from="70" to="72" numLanes="3" speed="20.1168">
        <lane index="0" length="81.0768" speed="20.1168"/>
        <lane index="1" length="81.0768" speed="20.1168"/>
        <lane index="2" length="60.96" speed="20.1168"/>
    </edge>
    <edge id="5119_72" from="5119" to="72" speed="20.1168"/>
    <edge id="5120_72" from="5120" to="72" speed="13.4112"/>
    <edge id="5121_76" from="5121" to="76" speed="20.1168"/>
    <edge id="79_76" from="79" to="76" numLanes="3" speed="20.1168">
        <lane index="0" length="78.9432" speed="20.1168"/>
        <lane index="1" length="78.9432" speed="20.1168"/>
        <lane index="2" length="60.96" speed="20.1168"/>
    </edge>
    <edge id="5120_76" from="5120" to="76" speed="13.4112"/>
    <edge id="5119_77" from="5119" to="77" numLanes="1" speed="20.1168">
        <lane index="0" length="53.949600000000004" speed="20.1168"/>
    </edge>
    <edge id="80_77" from="80" to="77" speed="22.352"/>
    <edge id="5120_77" from="5120" to="77" numLanes="2" speed="22.352">
        <lane index="0" length="68.58" speed="22.352"/>
        <lane index="1" length="68.58" speed="22.352"/>
    </edge>
    <edge id="80_78" from="80" to="78" speed="24.5872"/>
    <edge id="76_79" from="76" to="79" speed="20.1168"/>
    <edge id="82_79" from="82" to="79" numLanes="2" speed="20.1168"/>
    <edge id="78_80" from="78" to="80" numLanes="3" speed="24.5872">
        <lane index="0" length="49.9872" speed="24.5872"/>
        <lane index="1" length="49.9872" speed="24.5872"/>
        <lane index="2" length="49.9872" speed="24.5872"/>
    </edge>
    <edge id="81_80" from="81" to="80" speed="24.5872"/>
    <edge id="77_80" from="77" to="80" numLanes="2" speed="22.352">
        <lane index="0" length="83.2104" speed="22.352"/>
        <lane index="1" length="83.2104" speed="22.352"/>
    </edge>
    <edge id="80_81" from="80" to="81" numLanes="5" speed="24.5872"/>
    <edge id="83_81" from="83" to="81" speed="24.5872"/>
    <edge id="79_82" from="79" to="82" numLanes="2" speed="17.8816"/>
    <edge id="81_83" from="81" to="83" numLanes="2" speed="17.8816"/>
    <edge id="86_84" from="86" to="84" numLanes="2" speed="17.8816"/>
    <edge id="87_85" from="87" to="85" speed="20.1168"/>
    <edge id="84_86" from="84" to="86" speed="20.1168"/>
    <edge id="88_86" from="88" to="86" numLanes="2" speed="20.1168"/>
    <edge id="85_87" from="85" to="87" numLanes="2" speed="20.1168"/>
    <edge id="89_87" from="89" to="87" speed="20.1168"/>
    <edge id="86_88" from="86" to="88" speed="20.1168"/>
    <edge id="90_88" from="90" to="88" numLanes="2" speed="20.1168">
        <lane index="0" length="53.644800000000004" speed="20.1168"/>
        <lane index="1" length="53.644800000000004" speed="20.1168"/>
    </edge>
    <edge id="91_88" from="91" to="88" numLanes="2" speed="17.8816">
        <lane index="0" length="71.9328" speed="17.8816"/>
        <lane index="1" length="71.9328" speed="17.8816"/>
    </edge>
    <edge id="87_89" from="87" to="89" numLanes="3" speed="20.1168">
        <lane index="0" length="85.34400000000001" speed="20.1168"/>
        <lane index="1" length="85.34400000000001" speed="20.1168"/>
        <lane index="2" length="60.96" speed="20.1168"/>
    </edge>
    <edge id="92_89" from="92" to="89" speed="20.1168"/>
    <edge id="91_89" from="91" to="89" speed="13.4112"/>
    <edge id="88_90" from="88" to="90" speed="20.1168"/>
    <edge id="93_90" from="93" to="90" numLanes="2" speed="20.1168">
        <lane index="0" length="53.644800000000004" speed="20.1168"/>
        <lane index="1" length="53.644800000000004" speed="20.1168"/>
    </edge>
    <edge id="308_90" from="308" to="90" numLanes="6" speed="17.8816">
        <lane index="0" length="268.5288" speed="17.8816"/>
        <lane index="1" length="268.5288" speed="17.8816"/>
        <lane index="2" length="268.5288" speed="17.8816"/>
        <lane index="3" length="268.5288" speed="17.8816"/>
        <lane index="4" length="268.5288" speed="17.8816"/>
        <lane index="5" length="268.5288" speed="17.8816"/>
    </edge>
    <edge id="91_90" from="91" to="90" numLanes="3" speed="17.8816">
        <lane index="0" length="53.34" speed="17.8816"/>
        <lane index="1" length="53.34" speed="17.8816"/>
        <lane index="2" length="53.34" speed="17.8816"/>
    </edge>
    <edge id="90_91" from="90" to="91" numLanes="5" speed="17.8816">
        <lane index="0" length="53.34" speed="17.8816"/>
        <lane index="1" length="53.34" speed="17.8816"/>
        <lane index="2" length="53.34" speed="17.8816"/>
        <lane index="3" length="53.34" speed="17.8816"/>
        <lane index="4" length="53.34" speed="17.8816"/>
    </edge>
    <edge id="92_91" from="92" to="91" numLanes="5" speed="17.8816">
        <lane index="0" length="50.9016" speed="17.8816"/>
        <lane index="1" length="50.9016" speed="17.8816"/>
        <lane index="2" length="50.9016" speed="17.8816"/>
        <lane index="3" length="50.9016" speed="17.8816"/>
        <lane index="4" length="50.9016" speed="17.8816"/>
    </edge>
    <edge id="88_91" from="88" to="91" speed="17.8816"/>
    <edge id="89_91" from="89" to="91" numLanes="2" speed="13.4112">
        <lane index="0" length="68.58" speed="13.4112"/>
        <lane index="1" length="68.58" speed="13.4112"/>
    </edge>
    <edge id="93_91" from="93" to="91" numLanes="2" speed="13.4112">
        <lane index="0" length="71.9328" speed="13.4112"/>
        <lane index="1" length="71.9328" speed="13.4112"/>
    </edge>
    <edge id="42_91" from="42" to="91" speed="22.352"/>
    <edge id="89_92" from="89" to="92" numLanes="2" speed="20.1168">
        <lane index="0" length="53.949600000000004" speed="20.1168"/>
        <lane index="1" length="53.949600000000004" speed="20.1168"/>
    </edge>
    <edge id="42_92" from="42" to="92" speed="20.1168"/>
    <edge id="91_92" from="91" to="92" numLanes="3" speed="17.8816">
        <lane index="0" length="50.9016" speed="17.8816"/>
        <lane index="1" length="50.9016" speed="17.8816"/>
        <lane index="2" length="50.9016" speed="17.8816"/>
    </edge>
    <edge id="4324_92" from="4324" to="92" numLanes="6" speed="17.8816">
        <lane index="0" length="331.6224" speed="17.8816"/>
        <lane index="1" length="331.6224" speed="17.8816"/>
        <lane index="2" length="331.6224" speed="17.8816"/>
        <lane index="3" length="331.6224" speed="17.8816"/>
        <lane index="4" length="331.6224" speed="17.8816"/>
        <lane index="5" length="331.6224" speed="17.8816"/>
    </edge>
    <edge id="90_93" from="90" to="93" speed="20.1168"/>
    <edge id="95_93" from="95" to="93" numLanes="3" speed="20.1168">
        <lane index="0" length="85.64880000000001" speed="20.1168"/>
        <lane index="1" length="85.64880000000001" speed="20.1168"/>
        <lane index="2" length="60.96" speed="20.1168"/>
    </edge>
    <edge id="91_93" from="91" to="93" speed="13.4112"/>
    <edge id="96_94" from="96" to="94" speed="11.176"/>
    <edge id="93_95" from="93" to="95" speed="20.1168"/>
    <edge id="98_95" from="98" to="95" numLanes="2" speed="20.1168"/>
    <edge id="94_96" from="94" to="96" numLanes="3" speed="24.5872">
        <lane index="0" length="49.9872" speed="24.5872"/>
        <lane index="1" length="49.9872" speed="24.5872"/>
        <lane index="2" length="49.9872" speed="24.5872"/>
    </edge>
    <edge id="97_96" from="97" to="96" speed="24.5872"/>
    <edge id="42_96" from="42" to="96" numLanes="2" speed="22.352">
        <lane index="0" length="76.2" speed="22.352"/>
        <lane index="1" length="76.2" speed="22.352"/>
    </edge>
    <edge id="96_97" from="96" to="97" numLanes="5" speed="24.5872"/>
    <edge id="99_97" from="99" to="97" speed="24.5872"/>
    <edge id="95_98" from="95" to="98" speed="11.176"/>
    <edge id="97_99" from="97" to="99" numLanes="4" speed="24.5872"/>
    <edge id="250_101" from="250" to="101" numLanes="3" speed="17.8816">
        <lane index="0" length="128.01600000000002" speed="17.8816"/>
        <lane index="1" length="128.01600000000002" speed="17.8816"/>
        <lane index="2" length="128.01600000000002" speed="17.8816"/>
    </edge>
    <edge id="363_101" from="363" to="101" numLanes="5" speed="17.8816">
        <lane index="0" length="60.96" speed="17.8816"/>
        <lane index="1" length="243.5352" speed="17.8816"/>
        <lane index="2" length="243.5352" speed="17.8816"/>
        <lane index="3" length="243.5352" speed="17.8816"/>
        <lane index="4" length="243.5352" speed="17.8816"/>
    </edge>
    <edge id="240_101" from="240" to="101" speed="13.4112"/>
    <edge id="239_101" from="239" to="101" numLanes="4" speed="20.1168">
        <lane index="0" length="91.44" speed="20.1168"/>
        <lane index="1" length="297.7896" speed="20.1168"/>
        <lane index="2" length="297.7896" speed="20.1168"/>
        <lane index="3" length="297.7896" speed="20.1168"/>
    </edge>
    <edge id="3775_102" from="3775" to="102" numLanes="4" speed="17.8816">
        <lane index="0" length="405.384" speed="17.8816"/>
        <lane index="1" length="405.384" speed="17.8816"/>
        <lane index="2" length="405.384" speed="17.8816"/>
        <lane index="3" length="405.384" speed="17.8816"/>
    </edge>
    <edge id="103_102" from="103" to="102" numLanes="4" speed="17.8816">
        <lane index="0" length="128.01600000000002" speed="17.8816"/>
        <lane index="1" length="128.01600000000002" speed="17.8816"/>
        <lane index="2" length="128.01600000000002" speed="17.8816"/>
        <lane index="3" length="128.01600000000002" speed="17.8816"/>
    </edge>
    <edge id="211_102" from="211" to="102" numLanes="4" speed="20.1168">
        <lane index="0" length="83.82000000000001" speed="20.1168"/>
        <lane index="1" length="223.11360000000002" speed="20.1168"/>
        <lane index="2" length="223.11360000000002" speed="20.1168"/>
        <lane index="3" length="223.11360000000002" speed="20.1168"/>
    </edge>
    <edge id="251_102" from="251" to="102" speed="20.1168"/>
    <edge id="102_103" from="102" to="103" numLanes="3" speed="17.8816">
        <lane index="0" length="128.01600000000002" speed="17.8816"/>
        <lane index="1" length="128.01600000000002" speed="17.8816"/>
        <lane index="2" length="128.01600000000002" speed="17.8816"/>
    </edge>
    <edge id="277_103" from="277" to="103" numLanes="5" speed="17.8816">
        <lane index="0" length="106.68" speed="17.8816"/>
        <lane index="1" length="119.4816" speed="17.8816"/>
        <lane index="2" length="119.4816" speed="17.8816"/>
        <lane index="3" length="119.4816" speed="17.8816"/>
        <lane index="4" length="119.4816" speed="17.8816"/>
    </edge>
    <edge id="215_103" from="215" to="103" speed="17.8816"/>
    <edge id="216_103" from="216" to="103" numLanes="4" speed="17.8816">
        <lane index="0" length="134.112" speed="17.8816"/>
        <lane index="1" length="306.9336" speed="17.8816"/>
        <lane index="2" length="306.9336" speed="17.8816"/>
        <lane index="3" length="306.9336" speed="17.8816"/>
    </edge>
    <edge id="12_108" from="12" to="108" numLanes="1" speed="11.176"/>
    <edge id="4406_110" from="4406" to="110" numLanes="1" speed="13.4112"/>
    <edge id="750_114" from="750" to="114" numLanes="1" speed="15.6464"/>
    <edge id="4419_117" from="4419" to="117" numLanes="2" speed="13.4112"/>
    <edge id="4423_119" from="4423" to="119" numLanes="1" speed="13.4112"/>
    <edge id="2950_120" from="2950" to="120" numLanes="1" speed="11.176"/>
    <edge id="4424_121" from="4424" to="121" numLanes="3" speed="17.8816"/>
    <edge id="4424_122" from="4424" to="122" numLanes="3" speed="17.8816"/>
    <edge id="4399_123" from="4399" to="123" numLanes="2" speed="13.4112"/>
    <edge id="4424_123" from="4424" to="123" numLanes="2" speed="17.8816"/>
    <edge id="4412_124" from="4412" to="124" numLanes="1" speed="13.4112"/>
    <edge id="2975_127" from="2975" to="127" numLanes="1" speed="11.176"/>
    <edge id="2975_128" from="2975" to="128" numLanes="1" speed="11.176"/>
    <edge id="212_129" from="212" to="129" numLanes="2" speed="17.8816"/>
    <edge id="4362_131" from="4362" to="131" numLanes="2" speed="13.4112"/>
    <edge id="3000_133" from="3000" to="133" numLanes="2" speed="17.8816"/>
    <edge id="3000_134" from="3000" to="134" speed="17.8816"/>
    <edge id="3001_136" from="3001" to="136" speed="17.8816"/>
    <edge id="3001_137" from="3001" to="137" numLanes="2" speed="17.8816"/>
    <edge id="3025_139" from="3025" to="139" numLanes="1" speed="11.176"/>
    <edge id="3025_140" from="3025" to="140" numLanes="1" speed="11.176"/>
    <edge id="3050_142" from="3050" to="142" numLanes="1" speed="11.176"/>
    <edge id="3050_143" from="3050" to="143" numLanes="1" speed="11.176"/>
    <edge id="5300_151" from="5300" to="151" numLanes="2" speed="17.8816"/>
    <edge id="254_152" from="254" to="152" numLanes="3" speed="13.4112"/>
    <edge id="3375_154" from="3375" to="154" numLanes="2" speed="17.8816"/>
    <edge id="3425_154" from="3425" to="154" numLanes="2" speed="17.8816"/>
    <edge id="3350_155" from="3350" to="155" numLanes="1" speed="17.8816"/>
    <edge id="5112_162" from="5112" to="162" numLanes="2" speed="11.176"/>
    <edge id="899_168" from="899" to="168" numLanes="3" speed="13.4112"/>
    <edge id="5106_170" from="5106" to="170" numLanes="2" speed="11.176"/>
    <edge id="342_170" from="342" to="170" numLanes="2" speed="11.176"/>
    <edge id="5087_171" from="5087" to="171" numLanes="2" speed="11.176"/>
    <edge id="3450_173" from="3450" to="173" numLanes="1" speed="11.176"/>
    <edge id="5100_178" from="5100" to="178" numLanes="2" speed="17.8816"/>
    <edge id="5139_178" from="5139" to="178" numLanes="3" speed="17.8816"/>
    <edge id="899_180" from="899" to="180" numLanes="3" speed="13.4112"/>
    <edge id="3375_181" from="3375" to="181" numLanes="1" speed="11.176"/>
    <edge id="345_181" from="345" to="181" numLanes="2" speed="13.4112"/>
    <edge id="5300_184" from="5300" to="184" numLanes="2" speed="11.176"/>
    <edge id="287_190" from="287" to="190" numLanes="1" speed="11.176"/>
    <edge id="5050_191" from="5050" to="191" numLanes="1" speed="11.176"/>
    <edge id="5025_192" from="5025" to="192" numLanes="1" speed="13.4112"/>
    <edge id="5025_193" from="5025" to="193" numLanes="2" speed="13.4112"/>
    <edge id="5087_195" from="5087" to="195" numLanes="2" speed="11.176"/>
    <edge id="5081_197" from="5081" to="197" numLanes="2" speed="11.176"/>
    <edge id="4900_198" from="4900" to="198" numLanes="2" speed="17.8816"/>
    <edge id="921_200" from="921" to="200" numLanes="1" speed="11.176"/>
    <edge id="220_200" from="220" to="200" numLanes="1" speed="13.4112"/>
    <edge id="3750_206" from="3750" to="206" numLanes="1" speed="13.4112"/>
    <edge id="3775_208" from="3775" to="208" numLanes="1" speed="13.4112"/>
    <edge id="3775_209" from="3775" to="209" numLanes="1" speed="13.4112"/>
    <edge id="102_211" from="102" to="211" speed="13.4112"/>
    <edge id="267_212" from="267" to="212" numLanes="3" speed="17.8816">
        <lane index="0" length="24.384" speed="17.8816"/>
        <lane index="1" length="188.3664" speed="17.8816"/>
        <lane index="2" length="27.432000000000002" speed="17.8816"/>
    </edge>
    <edge id="57_212" from="57" to="212" numLanes="3" speed="17.8816">
        <lane index="0" length="27.432000000000002" speed="17.8816"/>
        <lane index="1" length="398.3736" speed="17.8816"/>
        <lane index="2" length="27.432000000000002" speed="17.8816"/>
    </edge>
    <edge id="1_212" from="1" to="212" numLanes="3" speed="17.8816">
        <lane index="0" length="739.4448" speed="17.8816"/>
        <lane index="1" length="739.4448" speed="17.8816"/>
        <lane index="2" length="30.48" speed="17.8816"/>
    </edge>
    <edge id="129_212" from="129" to="212" numLanes="4" speed="17.8816">
        <lane index="0" length="777.8496" speed="17.8816"/>
        <lane index="1" length="777.8496" speed="17.8816"/>
        <lane index="2" length="777.8496" speed="17.8816"/>
        <lane index="3" length="30.48" speed="17.8816"/>
    </edge>
    <edge id="2124_214" from="2124" to="214" numLanes="1" speed="11.176"/>
    <edge id="103_215" from="103" to="215" numLanes="3" speed="13.4112"/>
    <edge id="103_216" from="103" to="216" speed="13.4112"/>
    <edge id="9_217" from="9" to="217" numLanes="1" speed="11.176"/>
    <edge id="3825_218" from="3825" to="218" numLanes="1" speed="11.176"/>
    <edge id="3825_219" from="3825" to="219" numLanes="1" speed="11.176"/>
    <edge id="899_220" from="899" to="220" numLanes="2" speed="13.4112">
        <lane index="0" length="15.24" speed="13.4112"/>
        <lane index="1" length="98.4504" speed="13.4112"/>
    </edge>
    <edge id="919_220" from="919" to="220" numLanes="1" speed="11.176">
        <lane index="0" length="189.8904" speed="11.176"/>
    </edge>
    <edge id="200_220" from="200" to="220" numLanes="1" speed="13.4112">
        <lane index="0" length="114.90960000000001" speed="13.4112"/>
    </edge>
    <edge id="357_220" from="357" to="220" numLanes="1" speed="13.4112">
        <lane index="0" length="126.7968" speed="13.4112"/>
    </edge>
    <edge id="918_225" from="918" to="225" numLanes="1" speed="11.176"/>
    <edge id="915_229" from="915" to="229" numLanes="1" speed="11.176"/>
    <edge id="4550_235" from="4550" to="235" numLanes="1" speed="13.4112"/>
    <edge id="4550_236" from="4550" to="236" numLanes="2" speed="13.4112"/>
    <edge id="101_239" from="101" to="239" speed="13.4112"/>
    <edge id="101_240" from="101" to="240" numLanes="2" speed="13.4112"/>
    <edge id="250_242" from="250" to="242" speed="13.4112"/>
    <edge id="250_243" from="250" to="243" numLanes="2" speed="13.4112"/>
    <edge id="4450_245" from="4450" to="245" numLanes="1" speed="13.4112"/>
    <edge id="4450_246" from="4450" to="246" numLanes="1" speed="13.4112"/>
    <edge id="909_248" from="909" to="248" numLanes="1" speed="11.176"/>
    <edge id="4450_250" from="4450" to="250" numLanes="4" speed="17.8816">
        <lane index="0" length="45.72" speed="17.8816"/>
        <lane index="1" length="804.672" speed="17.8816"/>
        <lane index="2" length="804.672" speed="17.8816"/>
        <lane index="3" length="804.672" speed="17.8816"/>
    </edge>
    <edge id="101_250" from="101" to="250" numLanes="4" speed="17.8816">
        <lane index="0" length="128.01600000000002" speed="17.8816"/>
        <lane index="1" length="128.01600000000002" speed="17.8816"/>
        <lane index="2" length="128.01600000000002" speed="17.8816"/>
        <lane index="3" length="128.01600000000002" speed="17.8816"/>
    </edge>
    <edge id="242_250" from="242" to="250" numLanes="3" speed="20.1168">
        <lane index="0" length="269.1384" speed="20.1168"/>
        <lane index="1" length="269.1384" speed="20.1168"/>
        <lane index="2" length="269.1384" speed="20.1168"/>
    </edge>
    <edge id="243_250" from="243" to="250" speed="20.1168"/>
    <edge id="102_251" from="102" to="251" numLanes="2" speed="13.4112"/>
    <edge id="3425_254" from="3425" to="254" numLanes="3" speed="11.176">
        <lane index="0" length="274.32" speed="11.176"/>
        <lane index="1" length="274.32" speed="11.176"/>
        <lane index="2" length="274.32" speed="11.176"/>
    </edge>
    <edge id="344_254" from="344" to="254" numLanes="3" speed="13.4112">
        <lane index="0" length="442.87440000000004" speed="13.4112"/>
        <lane index="1" length="442.87440000000004" speed="13.4112"/>
        <lane index="2" length="442.87440000000004" speed="13.4112"/>
    </edge>